
-------------------------------------------------------------------------
|    ___ _   _ ___                                                      |
|   / __| | | |_  )   Release 5.0.0  "Raven"                            |
|   \__ \ |_| |/ /                                                      |
|   |___/\___//___|   Suite (Computational Fluid Dynamics Code)         |
|                                                                       |
-------------------------------------------------------------------------
| SU2 Original Developers: Dr. Francisco D. Palacios.                   |
|                          Dr. Thomas D. Economon.                      |
-------------------------------------------------------------------------
| SU2 Developers:                                                       |
| - Prof. Juan J. Alonso's group at Stanford University.                |
| - Prof. Piero Colonna's group at Delft University of Technology.      |
| - Prof. Nicolas R. Gauger's group at Kaiserslautern U. of Technology. |
| - Prof. Alberto Guardone's group at Polytechnic University of Milan.  |
| - Prof. Rafael Palacios' group at Imperial College London.            |
| - Prof. Edwin van der Weide's group at the University of Twente.      |
| - Prof. Vincent Terrapon's group at the University of Liege.          |
-------------------------------------------------------------------------
| Copyright (C) 2012-2017 SU2, the open-source CFD code.                |
|                                                                       |
| SU2 is free software; you can redistribute it and/or                  |
| modify it under the terms of the GNU Lesser General Public            |
| License as published by the Free Software Foundation; either          |
| version 2.1 of the License, or (at your option) any later version.    |
|                                                                       |
| SU2 is distributed in the hope that it will be useful,                |
| but WITHOUT ANY WARRANTY; without even the implied warranty of        |
| MERCHANTABILITY or FITNESS FOR A PARTICULAR PURPOSE. See the GNU      |
| Lesser General Public License for more details.                       |
|                                                                       |
| You should have received a copy of the GNU Lesser General Public      |
| License along with SU2. If not, see <http://www.gnu.org/licenses/>.   |
-------------------------------------------------------------------------

------------------------ Physical Case Definition -----------------------
Continuous Euler adjoint equations.
Mach number: 0.8.
Angle of attack (AoA): 1.25 deg, and angle of sideslip (AoS): 0 deg.
Read adjoint solution from: solution_adj.dat.
Read flow solution from: solution_flow.dat.
Non-Dimensional simulation (P=1.0, Rho=1.0, T=1.0 at the farfield).
The reference length/area (force coefficient) is 1.
The reference length (moment computation) is 1.
Reference origin (moment computation) is (0.25, 0, 0).
Surface(s) where the force coefficients are evaluated: airfoil.
Surface(s) plotted in the output file: airfoil.
Surface(s) affected by the design variables: airfoil.
Input mesh file name: mesh_NACA0012_inv_deform.su2

----------------------- Design problem definition -----------------------
CD objective function.

---------------------- Space Numerical Integration ----------------------
Jameson-Schmidt-Turkel scheme for the adjoint inviscid terms.
JST viscous coefficients (1st, 2nd, & 4th): 0.15, 0, 0.02.
The method includes a grid stretching correction (p = 0.3).
Second order integration.
The reference sharp edge distance is: 0.15. 
Gradient computation using Green-Gauss theorem.

---------------------- Time Numerical Integration -----------------------
Local time stepping (steady state simulation).
Euler implicit method for the adjoint equations.
V Multigrid Cycle, with 2 multigrid levels.
Damping factor for the residual restriction: 1.
Damping factor for the correction prolongation: 1.
No CFL adaptation.
Multigrid Level:                       0     1     2
Courant-Friedrichs-Lewy number:        8
MG PreSmooth coefficients:             1     2     3
MG PostSmooth coefficients:            0     0     0
MG CorrecSmooth coefficients:          0     0     0

------------------------- Convergence Criteria --------------------------
Maximum number of iterations: 1000.
Reduce the adjoint density residual 6 orders of magnitude.
The minimum value for the adjoint density residual is 10^(-13).

-------------------------- Output Information ---------------------------
Writing a flow solution every 250 iterations.
Writing the convergence history every 1 iterations.
The output file format is Tecplot ASCII (.dat).
Convergence history file name: history_adjoint.
Forces breakdown file name: forces_breakdown.dat.
Adjoint solution file name: solution_adj.dat.
Restart adjoint file name: restart_adj.dat.
Adjoint variables file name: adjoint.
Surface adjoint coefficients file name: surface_adjoint.

------------------- Config File Boundary Information --------------------
Euler wall boundary marker(s): airfoil.
Far-field boundary marker(s): farfield.

---------------------- Read Grid File Information -----------------------
Two dimensional problem.
5233 points before parallel partitioning.
Performing linear partitioning of the grid nodes.
10216 interior elements before parallel partitioning.
Calling the partitioning functions.
Building the graph adjacency structure.
Distributing elements across all ranks.
2 surface markers.
200 boundary elements in index 0 (Marker = airfoil).
50 boundary elements in index 1 (Marker = farfield).
Calling ParMETIS...
Finished partitioning using ParMETIS (547 edge cuts).
Communicating partition data and creating halo layers.
10763 interior elements including halo cells. 
10763 triangles.
5796 vertices including ghost points. 
Establishing MPI communication patterns.

------------------------- Geometry Preprocessing ------------------------
Setting point connectivity.
Renumbering points (Reverse Cuthill McKee Ordering).
Recomputing point connectivity.
Setting element connectivity.
Checking the numerical grid orientation.
Identifying edges and vertices.
Computing centers of gravity.
Setting the control volume structure.
Area of the computational grid: 1.3e+03.
Searching for the closest normal neighbors to the surfaces.
Compute the surface curvature.
Max K: 7.84e+03. Mean K: 35.6. Standard deviation K: 494.
Checking for periodicity.
Setting the multigrid structure.
MG level: 0 -> CVs: 5796. Agglomeration rate 1/1.00. CFL 8.
MG level: 1 -> CVs: 1800. Agglomeration rate 1/3.22. CFL 6.69.
MG level: 2 -> CVs: 626. Agglomeration rate 1/2.88. CFL 5.92.
Computing wall distances.
Wetted area = 2.03 m.
Area projection in the x-plane = 0.107 m, y-plane = 1 m.

------------------------- Driver information --------------------------
A Fluid driver has been instantiated.

------------------------ Iteration Preprocessing ------------------------
Zone 1: adjoint Euler/Navier-Stokes/RANS flow iteration.

------------------------- Solver Preprocessing --------------------------
Inviscid flow: Computing density based on free-stream
temperature and pressure using the ideal gas law.
Force coefficients computed using free-stream values.
-- Input conditions:
Fluid Model: STANDARD_AIR 
Specific gas constant: 287.058 N.m/kg.K.
Specific gas constant (non-dim): 1
Specific Heat Ratio: 1.4
Free-stream static pressure: 101325 Pa.
Free-stream total pressure: 154454 Pa.
Free-stream temperature: 288.15 K.
Free-stream density: 1.22498 kg/m^3.
Free-stream velocity: (272.173, 5.93883) m/s. Magnitude: 272.238 m/s (529.186 KTS).
Free-stream total energy per unit mass: 243846 m^2/s^2.
-- Reference values:
Reference specific gas constant: 287.058 N.m/kg.K.
Reference pressure: 101325 Pa.
Reference temperature: 288.15 K.
Reference density: 1.22498 kg/m^3.
Reference velocity: 287.603 m/s.
Reference energy per unit mass: 82715.8 m^2/s^2.
-- Resulting non-dimensional state:
Mach number (non-dim): 0.8
Specific gas constant (non-dim): 1
Free-stream temperature (non-dim): 1
Free-stream pressure (non-dim): 1
Free-stream density (non-dim): 1
Free-stream velocity (non-dim): (0.946348, 0.0206494). Magnitude: 0.946573
Free-stream total energy per unit mass (non-dim): 2.948

Initialize Jacobian structure (Euler). MG level: 0.
Initialize Jacobian structure (Adjoint Euler). MG level: 0.
Initialize Jacobian structure (Euler). MG level: 1.
Initialize Jacobian structure (Adjoint Euler). MG level: 1.
Initialize Jacobian structure (Euler). MG level: 2.
Initialize Jacobian structure (Adjoint Euler). MG level: 2.

----------------- Integration and Numerics Preprocessing ----------------
Integration Preprocessing.
Numerics Preprocessing.

------------------------------ Begin Solver -----------------------------
Begin direct solver to store flow data (single iteration).
Compute residuals to check the convergence of the direct problem.
log10[Maximum residual]: -10.2408, located at point 1428.
End direct solver, begin adjoint problem.

---------------------- Local Time Stepping Summary ----------------------
MG level: 0 -> Min. DT: 0.00039819. Max. DT: 2.90293. CFL: 8.
MG level: 1 -> Min. DT: 0.000639782. Max. DT: 4.56883. CFL: 6.68734.
MG level: 2 -> Min. DT: 0.00124732. Max. DT: 6.64847. CFL: 5.91555.
-------------------------------------------------------------------------

log10[Maximum residual]: -4.51895.
Maximum residual point 1455, located at (0.459902, 0.187851).

 Iter    Time(s)   Res[Psi_Rho]     Res[Psi_E]      Sens_Geo      Sens_AoA
 1699   0.049536      -5.593229      -5.635802   -2.3830e-01    6.0985e-04
 1700   0.036738      -5.428428      -5.807538   -2.4543e-01    6.1382e-04
 1701   0.031416      -5.340287      -5.796975   -2.3337e-01    6.2623e-04
 1702   0.028871      -5.398051      -5.835727   -2.2821e-01    6.4122e-04
 1703   0.027764      -5.390701      -5.845376   -2.2545e-01    6.4973e-04
 1704   0.026426      -5.396870      -5.855723   -2.2456e-01    6.4527e-04
 1705   0.025459      -5.400104      -5.857414   -2.2524e-01    6.3010e-04
 1706   0.024670      -5.415783      -5.871207   -2.2593e-01    6.1458e-04
 1707   0.023977      -5.422643      -5.848718   -2.2632e-01    6.0376e-04
 1708   0.023807      -5.448737      -5.845350   -2.2645e-01    5.9933e-04
 1709   0.023401      -5.491401      -5.865124   -2.2655e-01    5.9848e-04
 1710   0.023041      -5.534524      -5.895092   -2.2704e-01    5.9709e-04
 1711   0.022718      -5.546171      -5.884581   -2.2738e-01    5.9581e-04
 1712   0.022421      -5.606749      -5.977068   -2.2785e-01    5.9245e-04
 1713   0.022161      -5.641338      -6.010405   -2.2803e-01    5.8766e-04
 1714   0.021936      -5.687629      -6.080672   -2.2812e-01    5.8284e-04
 1715   0.021738      -5.723596      -6.147788   -2.2822e-01    5.7824e-04
 1716   0.021478      -5.756454      -6.214301   -2.2827e-01    5.7396e-04
 1717   0.021552      -5.772127      -6.259907   -2.2819e-01    5.7040e-04
 1718   0.021971      -5.768882      -6.275256   -2.2799e-01    5.6775e-04
 1719   0.022332      -5.753560      -6.266475   -2.2767e-01    5.6615e-04
 1720   0.022324      -5.730765      -6.247365   -2.2729e-01    5.6558e-04
 1721   0.022182      -5.709629      -6.226785   -2.2688e-01    5.6614e-04
 1722   0.021999      -5.690672      -6.207576   -2.2646e-01    5.6788e-04
 1723   0.021837      -5.676414      -6.192093   -2.2605e-01    5.7089e-04
 1724   0.021669      -5.667175      -6.180990   -2.2566e-01    5.7520e-04
 1725   0.021497      -5.662979      -6.174075   -2.2529e-01    5.8081e-04
 1726   0.021493      -5.663192      -6.170188   -2.2495e-01    5.8767e-04
 1727   0.021623      -5.666603      -6.167661   -2.2464e-01    5.9571e-04
 1728   0.021488      -5.671509      -6.164875   -2.2436e-01    6.0484e-04
 1729   0.021405      -5.675952      -6.160741   -2.2411e-01    6.1496e-04
 1730   0.021305      -5.678035      -6.154965   -2.2386e-01    6.2598e-04
 1731   0.021193      -5.676040      -6.147567   -2.2361e-01    6.3783e-04
 1732   0.021328      -5.667355      -6.135147   -2.2331e-01    6.5043e-04
 1733   0.021218      -5.644034      -6.098863   -2.2294e-01    6.6355e-04
 1734   0.021113      -5.602683      -6.029304   -2.2245e-01    6.7673e-04
 1735   0.021012      -5.559263      -5.954760   -2.2186e-01    6.8963e-04
 1736   0.020947      -5.524787      -5.897754   -2.2126e-01    7.0219e-04
 1737   0.020855      -5.496702      -5.855945   -2.2074e-01    7.1454e-04
 1738   0.020810      -5.477538      -5.828166   -2.2027e-01    7.2684e-04

---------------------- Local Time Stepping Summary ----------------------
MG level: 0 -> Min. DT: 0.0003982. Max. DT: 2.903. CFL: 8.
MG level: 1 -> Min. DT: 0.0006398. Max. DT: 4.569. CFL: 6.687.
MG level: 2 -> Min. DT: 0.001247. Max. DT: 6.648. CFL: 5.916.
-------------------------------------------------------------------------

log10[Maximum residual]: -4.417.
Maximum residual point 5223, located at (-17.61, -4.35).

 Iter    Time(s)   Res[Psi_Rho]     Res[Psi_E]      Sens_Geo      Sens_AoA
 1739   0.020813      -5.469391      -5.814932   -2.1983e-01    7.3916e-04
 1740   0.020740      -5.467930      -5.811069   -2.1943e-01    7.5149e-04
 1741   0.020685      -5.469410      -5.812178   -2.1907e-01    7.6375e-04
 1742   0.020612      -5.473271      -5.816870   -2.1871e-01    7.7585e-04
 1743   0.020542      -5.479147      -5.823494   -2.1836e-01    7.8773e-04
 1744   0.020469      -5.486801      -5.831222   -2.1799e-01    7.9933e-04
 1745   0.020410      -5.496020      -5.839866   -2.1763e-01    8.1059e-04
 1746   0.020434      -5.506484      -5.849282   -2.1727e-01    8.2146e-04
 1747   0.020387      -5.517835      -5.859341   -2.1691e-01    8.3192e-04
 1748   0.020328      -5.529721      -5.869915   -2.1655e-01    8.4195e-04
 1749   0.020288      -5.541861      -5.880899   -2.1619e-01    8.5153e-04
 1750   0.020230      -5.554078      -5.892240   -2.1583e-01    8.6065e-04
 1751   0.020178      -5.566301      -5.903943   -2.1546e-01    8.6929e-04
 1752   0.020132      -5.578542      -5.916049   -2.1508e-01    8.7745e-04
 1753   0.020087      -5.590872      -5.928612   -2.1470e-01    8.8513e-04
 1754   0.020042      -5.603390      -5.941687   -2.1430e-01    8.9233e-04
 1755   0.020002      -5.616213      -5.955328   -2.1389e-01    8.9907e-04
 1756   0.019958      -5.629454      -5.969580   -2.1347e-01    9.0535e-04
 1757   0.019926      -5.643220      -5.984482   -2.1305e-01    9.1121e-04
 1758   0.019885      -5.657603      -6.000064   -2.1261e-01    9.1664e-04
 1759   0.019858      -5.672682      -6.016347   -2.1218e-01    9.2167e-04
 1760   0.019821      -5.688524      -6.033349   -2.1174e-01    9.2632e-04
 1761   0.019783      -5.705180      -6.051082   -2.1131e-01    9.3061e-04
 1762   0.019740      -5.722689      -6.069558   -2.1089e-01    9.3455e-04
 1763   0.019701      -5.741077      -6.088778   -2.1049e-01    9.3816e-04
 1764   0.019672      -5.760351      -6.108741   -2.1009e-01    9.4145e-04
 1765   0.019636      -5.780502      -6.129432   -2.0971e-01    9.4444e-04
 1766   0.019623      -5.801498      -6.150823   -2.0935e-01    9.4715e-04
 1767   0.019593      -5.823290      -6.172870   -2.0900e-01    9.4958e-04
 1768   0.019571      -5.845804      -6.195505   -2.0866e-01    9.5175e-04
 1769   0.019876      -5.868953      -6.218644   -2.0835e-01    9.5368e-04
 1770   0.020142      -5.892633      -6.242178   -2.0804e-01    9.5537e-04
 1771   0.020285      -5.916729      -6.265979   -2.0775e-01    9.5684e-04
 1772   0.020497      -5.941123      -6.289903   -2.0748e-01    9.5811e-04
 1773   0.020460      -5.965693      -6.313795   -2.0722e-01    9.5917e-04
 1774   0.020423      -5.990323      -6.337491   -2.0697e-01    9.6006e-04
 1775   0.020388      -6.014897      -6.360828   -2.0673e-01    9.6078e-04
 1776   0.020350      -6.039309      -6.383650   -2.0650e-01    9.6133e-04
 1777   0.020360      -6.063457      -6.405813   -2.0629e-01    9.6174e-04
 1778   0.020384      -6.087246      -6.427193   -2.0609e-01    9.6200e-04

---------------------- Local Time Stepping Summary ----------------------
MG level: 0 -> Min. DT: 0.0003982. Max. DT: 2.903. CFL: 8.
MG level: 1 -> Min. DT: 0.0006398. Max. DT: 4.569. CFL: 6.687.
MG level: 2 -> Min. DT: 0.001247. Max. DT: 6.648. CFL: 5.916.
-------------------------------------------------------------------------

log10[Maximum residual]: -5.121.
Maximum residual point 225, located at (-19.84, -2.507).

 Iter    Time(s)   Res[Psi_Rho]     Res[Psi_E]      Sens_Geo      Sens_AoA
 1779   0.020349      -6.110587      -6.447692   -2.0590e-01    9.6214e-04
 1780   0.020347      -6.133397      -6.467238   -2.0573e-01    9.6216e-04
 1781   0.020316      -6.155599      -6.485794   -2.0556e-01    9.6207e-04
 1782   0.020282      -6.177130      -6.503353   -2.0541e-01    9.6188e-04
 1783   0.020250      -6.197938      -6.519942   -2.0527e-01    9.6160e-04
 1784   0.020215      -6.217994      -6.535620   -2.0514e-01    9.6123e-04
 1785   0.020182      -6.237294      -6.550479   -2.0502e-01    9.6079e-04
 1786   0.020153      -6.255866      -6.564643   -2.0491e-01    9.6027e-04
 1787   0.020119      -6.273766      -6.578259   -2.0481e-01    9.5969e-04
 1788   0.020088      -6.291000      -6.591427   -2.0470e-01    9.5904e-04
 1789   0.020057      -6.306700      -6.603314   -2.0462e-01    9.5825e-04
 1790   0.020046      -6.300424      -6.587494   -2.0462e-01    9.5751e-04
 1791   0.020024      -6.300537      -6.584021   -2.0461e-01    9.5699e-04
 1792   0.019996      -6.331388      -6.624743   -2.0452e-01    9.5639e-04
 1793   0.019975      -6.313117      -6.596604   -2.0442e-01    9.5545e-04
 1794   0.019951      -6.346958      -6.623414   -2.0445e-01    9.5467e-04
 1795   0.019928      -6.356704      -6.632693   -2.0450e-01    9.5398e-04
 1796   0.019899      -6.375825      -6.655994   -2.0446e-01    9.5333e-04
 1797   0.019882      -6.378221      -6.654718   -2.0435e-01    9.5256e-04
 1798   0.019890      -6.375918      -6.648396   -2.0434e-01    9.5171e-04
 1799   0.019864      -6.399860      -6.669933   -2.0443e-01    9.5104e-04
 1800   0.019854      -6.408473      -6.682624   -2.0447e-01    9.5036e-04
 1801   0.019840      -6.383705      -6.650696   -2.0439e-01    9.4988e-04
 1802   0.019833      -6.429594      -6.704943   -2.0434e-01    9.4934e-04
 1803   0.019812      -6.446210      -6.723498   -2.0431e-01    9.4862e-04
 1804   0.019792      -6.446924      -6.709881   -2.0439e-01    9.4800e-04
 1805   0.019768      -6.452396      -6.730284   -2.0442e-01    9.4748e-04
 1806   0.019748      -6.448913      -6.714955   -2.0440e-01    9.4712e-04
 1807   0.019730      -6.485547      -6.774105   -2.0439e-01    9.4673e-04
 1808   0.019712      -6.494251      -6.776209   -2.0433e-01    9.4613e-04
 1809   0.019700      -6.517656      -6.783975   -2.0440e-01    9.4564e-04
 1810   0.019680      -6.516784      -6.793568   -2.0442e-01    9.4527e-04
 1811   0.019662      -6.546005      -6.807695   -2.0442e-01    9.4495e-04
 1812   0.019642      -6.578804      -6.860935   -2.0440e-01    9.4467e-04
 1813   0.019630      -6.566787      -6.834898   -2.0441e-01    9.4445e-04
 1814   0.019618      -6.614330      -6.890730   -2.0442e-01    9.4417e-04
 1815   0.019602      -6.631872      -6.896022   -2.0445e-01    9.4386e-04
 1816   0.019587      -6.658279      -6.937424   -2.0446e-01    9.4360e-04
 1817   0.019566      -6.678796      -6.946642   -2.0448e-01    9.4337e-04
 1818   0.019549      -6.708401      -6.986598   -2.0449e-01    9.4317e-04

---------------------- Local Time Stepping Summary ----------------------
MG level: 0 -> Min. DT: 0.0003982. Max. DT: 2.903. CFL: 8.
MG level: 1 -> Min. DT: 0.0006398. Max. DT: 4.569. CFL: 6.687.
MG level: 2 -> Min. DT: 0.001247. Max. DT: 6.648. CFL: 5.916.
-------------------------------------------------------------------------

log10[Maximum residual]: -5.775.
Maximum residual point 4176, located at (-0.7811, -0.002058).

 Iter    Time(s)   Res[Psi_Rho]     Res[Psi_E]      Sens_Geo      Sens_AoA
 1819   0.019536      -6.731067      -6.999921   -2.0451e-01    9.4299e-04
 1820   0.019517      -6.760289      -7.033880   -2.0453e-01    9.4282e-04
 1821   0.019504      -6.785748      -7.054180   -2.0454e-01    9.4266e-04
 1822   0.019552      -6.813759      -7.084639   -2.0456e-01    9.4252e-04
 1823   0.019636      -6.840559      -7.109600   -2.0457e-01    9.4239e-04
 1824   0.019655      -6.868371      -7.138084   -2.0459e-01    9.4227e-04
 1825   0.019649      -6.896263      -7.166107   -2.0460e-01    9.4217e-04
 1826   0.019636      -6.924643      -7.194527   -2.0461e-01    9.4208e-04
 1827   0.019622      -6.953402      -7.224192   -2.0462e-01    9.4200e-04
 1828   0.019604      -6.982439      -7.253664   -2.0463e-01    9.4194e-04
 1829   0.019588      -7.011802      -7.284365   -2.0464e-01    9.4188e-04
 1830   0.019571      -7.041349      -7.315134   -2.0465e-01    9.4184e-04
 1831   0.019584      -7.071159      -7.346791   -2.0466e-01    9.4181e-04
 1832   0.019600      -7.101079      -7.378786   -2.0466e-01    9.4179e-04
 1833   0.019606      -7.131145      -7.411386   -2.0467e-01    9.4177e-04
 1834   0.019607      -7.161215      -7.444396   -2.0468e-01    9.4177e-04
 1835   0.019607      -7.191290      -7.477812   -2.0468e-01    9.4177e-04
 1836   0.019588      -7.221213      -7.511563   -2.0469e-01    9.4178e-04
 1837   0.019572      -7.250989      -7.545540   -2.0469e-01    9.4180e-04
 1838   0.019557      -7.280406      -7.579676   -2.0469e-01    9.4183e-04
 1839   0.019541      -7.309493      -7.613825   -2.0470e-01    9.4185e-04
 1840   0.019523      -7.337994      -7.647898   -2.0470e-01    9.4189e-04
 1841   0.019512      -7.365965      -7.681731   -2.0470e-01    9.4192e-04
 1842   0.019498      -7.393145      -7.715219   -2.0470e-01    9.4197e-04
 1843   0.019485      -7.419619      -7.748189   -2.0471e-01    9.4201e-04
 1844   0.019479      -7.445157      -7.780539   -2.0471e-01    9.4205e-04
 1845   0.019466      -7.469876      -7.812101   -2.0471e-01    9.4210e-04
 1846   0.019453      -7.493597      -7.842790   -2.0471e-01    9.4215e-04
 1847   0.019441      -7.516465      -7.872460   -2.0471e-01    9.4219e-04
 1848   0.019432      -7.538351      -7.901070   -2.0471e-01    9.4224e-04
 1849   0.019421      -7.559428      -7.928521   -2.0471e-01    9.4229e-04
 1850   0.019407      -7.579620      -7.954845   -2.0471e-01    9.4234e-04
 1851   0.019401      -7.599130      -7.980032   -2.0471e-01    9.4238e-04
 1852   0.019407      -7.617939      -8.004237   -2.0472e-01    9.4243e-04
 1853   0.019393      -7.636280      -8.027601   -2.0472e-01    9.4247e-04
 1854   0.019408      -7.654086      -8.050433   -2.0472e-01    9.4251e-04
 1855   0.019397      -7.669868      -8.070771   -2.0472e-01    9.4256e-04
 1856   0.019385      -7.657162      -8.037464   -2.0471e-01    9.4259e-04
 1857   0.019371      -7.689089      -8.095851   -2.0471e-01    9.4263e-04
 1858   0.019362      -7.691112      -8.092643   -2.0472e-01    9.4267e-04

---------------------- Local Time Stepping Summary ----------------------
MG level: 0 -> Min. DT: 0.0003982. Max. DT: 2.903. CFL: 8.
MG level: 1 -> Min. DT: 0.0006398. Max. DT: 4.569. CFL: 6.687.
MG level: 2 -> Min. DT: 0.001247. Max. DT: 6.648. CFL: 5.916.
-------------------------------------------------------------------------

log10[Maximum residual]: -6.705.
Maximum residual point 352, located at (0.05382, 0.033).

 Iter    Time(s)   Res[Psi_Rho]     Res[Psi_E]      Sens_Geo      Sens_AoA
 1859   0.019351      -7.696013      -8.087030   -2.0471e-01    9.4270e-04
 1860   0.019342      -7.713913      -8.122106   -2.0471e-01    9.4273e-04
 1861   0.019330      -7.718183      -8.113021   -2.0471e-01    9.4276e-04
 1862   0.019321      -7.736186      -8.129281   -2.0471e-01    9.4279e-04
 1863   0.019308      -7.763376      -8.170703   -2.0471e-01    9.4282e-04
 1864   0.019312      -7.759661      -8.161296   -2.0471e-01    9.4285e-04
 1865   0.019313      -7.735831      -8.118446   -2.0471e-01    9.4287e-04
 1866   0.019300      -7.778928      -8.186077   -2.0471e-01    9.4289e-04
 1867   0.019299      -7.803943      -8.204670   -2.0471e-01    9.4291e-04
 1868   0.019291      -7.824683      -8.236364   -2.0470e-01    9.4293e-04
 1869   0.019280      -7.847448      -8.253772   -2.0470e-01    9.4295e-04
 1870   0.019272      -7.855568      -8.261724   -2.0470e-01    9.4297e-04
 1871   0.019264      -7.888772      -8.298805   -2.0470e-01    9.4300e-04
 1872   0.019252      -7.908169      -8.318610   -2.0470e-01    9.4302e-04
 1873   0.019244      -7.926395      -8.336992   -2.0470e-01    9.4303e-04
 1874   0.019233      -7.951074      -8.373839   -2.0470e-01    9.4305e-04
 1875   0.019235      -7.958951      -8.372824   -2.0470e-01    9.4307e-04
 1876   0.019286      -7.984043      -8.401643   -2.0470e-01    9.4309e-04
 1877   0.019336      -7.998270      -8.420033   -2.0470e-01    9.4310e-04
 1878   0.019339      -8.019327      -8.440257   -2.0470e-01    9.4312e-04
 1879   0.019335      -8.042025      -8.478360   -2.0470e-01    9.4313e-04
 1880   0.019325      -8.034563      -8.452562   -2.0470e-01    9.4315e-04
 1881   0.019315      -8.064401      -8.495027   -2.0470e-01    9.4316e-04
 1882   0.019306      -8.076261      -8.512175   -2.0469e-01    9.4317e-04
 1883   0.019297      -8.104916      -8.546337   -2.0469e-01    9.4319e-04
 1884   0.019283      -8.125308      -8.579414   -2.0469e-01    9.4320e-04
 1885   0.019297      -8.146971      -8.600831   -2.0469e-01    9.4321e-04
 1886   0.019311      -8.165825      -8.626217   -2.0469e-01    9.4322e-04
 1887   0.019305      -8.184876      -8.648779   -2.0469e-01    9.4323e-04
 1888   0.019307      -8.200904      -8.670812   -2.0469e-01    9.4323e-04
 1889   0.019298      -8.218091      -8.692997   -2.0469e-01    9.4324e-04
 1890   0.019289      -8.234185      -8.715076   -2.0469e-01    9.4325e-04
 1891   0.019278      -8.250538      -8.737022   -2.0469e-01    9.4326e-04
 1892   0.019271      -8.266613      -8.758384   -2.0469e-01    9.4326e-04
 1893   0.019268      -8.282741      -8.780597   -2.0469e-01    9.4327e-04
 1894   0.019260      -8.298646      -8.801670   -2.0469e-01    9.4328e-04
 1895   0.019251      -8.314393      -8.823595   -2.0469e-01    9.4328e-04
 1896   0.019242      -8.330055      -8.844486   -2.0469e-01    9.4329e-04
 1897   0.019243      -8.345436      -8.865972   -2.0469e-01    9.4329e-04
 1898   0.019243      -8.360858      -8.886574   -2.0469e-01    9.4329e-04

---------------------- Local Time Stepping Summary ----------------------
MG level: 0 -> Min. DT: 0.0003982. Max. DT: 2.903. CFL: 8.
MG level: 1 -> Min. DT: 0.0006398. Max. DT: 4.569. CFL: 6.687.
MG level: 2 -> Min. DT: 0.001247. Max. DT: 6.648. CFL: 5.916.
-------------------------------------------------------------------------

log10[Maximum residual]: -7.207.
Maximum residual point 795, located at (0.1224, 0.06805).

 Iter    Time(s)   Res[Psi_Rho]     Res[Psi_E]      Sens_Geo      Sens_AoA
 1899   0.019256      -8.375892      -8.907579   -2.0469e-01    9.4330e-04
 1900   0.019253      -8.391062      -8.927611   -2.0469e-01    9.4330e-04
 1901   0.019270      -8.405785      -8.948096   -2.0469e-01    9.4331e-04
 1902   0.019271      -8.420704      -8.967335   -2.0469e-01    9.4331e-04
 1903   0.019281      -8.435159      -8.987204   -2.0469e-01    9.4331e-04
 1904   0.019301      -8.449835      -9.005476   -2.0469e-01    9.4332e-04
 1905   0.019316      -8.464041      -9.024606   -2.0469e-01    9.4332e-04
 1906   0.019327      -8.478492      -9.041753   -2.0469e-01    9.4332e-04
 1907   0.019337      -8.492442      -9.060060   -2.0469e-01    9.4332e-04
 1908   0.019341      -8.506680      -9.075911   -2.0469e-01    9.4333e-04
 1909   0.019347      -8.520332      -9.093317   -2.0469e-01    9.4333e-04
 1910   0.019361      -8.534324      -9.107656   -2.0469e-01    9.4333e-04
 1911   0.019368      -8.547580      -9.124017   -2.0469e-01    9.4333e-04
 1912   0.019372      -8.561214      -9.136557   -2.0469e-01    9.4334e-04
 1913   0.019382      -8.573926      -9.151665   -2.0469e-01    9.4334e-04
 1914   0.019400      -8.587047      -9.162170   -2.0469e-01    9.4334e-04
 1915   0.019405      -8.599094      -9.175951   -2.0469e-01    9.4334e-04
 1916   0.019408      -8.611655      -9.184543   -2.0469e-01    9.4335e-04
 1917   0.019423      -8.623119      -9.197374   -2.0469e-01    9.4335e-04
 1918   0.019433      -8.635329      -9.204774   -2.0469e-01    9.4335e-04
 1919   0.019438      -8.646549      -9.217430   -2.0469e-01    9.4335e-04
 1920   0.019441      -8.658788      -9.224616   -2.0469e-01    9.4335e-04
 1921   0.019451      -8.670150      -9.237722   -2.0469e-01    9.4336e-04
 1922   0.019460      -8.682686      -9.245330   -2.0469e-01    9.4336e-04
 1923   0.019466      -8.694384      -9.259047   -2.0469e-01    9.4336e-04
 1924   0.019470      -8.707261      -9.267265   -2.0469e-01    9.4336e-04
 1925   0.019537      -8.719297      -9.281464   -2.0469e-01    9.4336e-04
 1926   0.019586      -8.732422      -9.290251   -2.0468e-01    9.4337e-04
 1927   0.019605      -8.744715      -9.304748   -2.0468e-01    9.4337e-04
 1928   0.019612      -8.757973      -9.314004   -2.0468e-01    9.4337e-04
 1929   0.019625      -8.770435      -9.328653   -2.0468e-01    9.4337e-04
 1930   0.019638      -8.783734      -9.338280   -2.0468e-01    9.4337e-04
 1931   0.019643      -8.796305      -9.352985   -2.0468e-01    9.4337e-04
 1932   0.019659      -8.809590      -9.362911   -2.0468e-01    9.4337e-04
 1933   0.019687      -8.822241      -9.377620   -2.0468e-01    9.4338e-04
 1934   0.019693      -8.835489      -9.387800   -2.0468e-01    9.4338e-04
 1935   0.019701      -8.848221      -9.402503   -2.0468e-01    9.4338e-04
 1936   0.019714      -8.861440      -9.412926   -2.0468e-01    9.4338e-04
 1937   0.019717      -8.874273      -9.427644   -2.0468e-01    9.4338e-04
 1938   0.019718      -8.887487      -9.438333   -2.0468e-01    9.4338e-04

---------------------- Local Time Stepping Summary ----------------------
MG level: 0 -> Min. DT: 0.0003982. Max. DT: 2.903. CFL: 8.
MG level: 1 -> Min. DT: 0.0006398. Max. DT: 4.569. CFL: 6.687.
MG level: 2 -> Min. DT: 0.001247. Max. DT: 6.648. CFL: 5.916.
-------------------------------------------------------------------------

log10[Maximum residual]: -7.769.
Maximum residual point 980, located at (0.1254, 0.0824).

 Iter    Time(s)   Res[Psi_Rho]     Res[Psi_E]      Sens_Geo      Sens_AoA
 1939   0.019719      -8.900457      -9.453116   -2.0468e-01    9.4338e-04
 1940   0.019727      -8.913699      -9.464121   -2.0468e-01    9.4338e-04
 1941   0.019724      -8.926849      -9.479030   -2.0468e-01    9.4338e-04
 1942   0.019727      -8.940155      -9.490424   -2.0468e-01    9.4338e-04
 1943   0.019727      -8.953524      -9.505516   -2.0468e-01    9.4338e-04
 1944   0.019733      -8.966926      -9.517378   -2.0468e-01    9.4338e-04
 1945   0.019736      -8.980542      -9.532695   -2.0468e-01    9.4338e-04
 1946   0.019736      -8.994070      -9.545097   -2.0468e-01    9.4339e-04
 1947   0.019735      -9.007950      -9.560672   -2.0468e-01    9.4339e-04
 1948   0.019730      -9.021646      -9.573706   -2.0468e-01    9.4339e-04
 1949   0.019736      -9.035824      -9.589598   -2.0468e-01    9.4339e-04

-------------------------- File Output Summary --------------------------
Writing comma-separated values (CSV) surface files.
Merging coordinates in the Master node.
Merging solution in the Master node.
Writing SU2 native restart file.
-------------------------------------------------------------------------

 1950   0.019908      -9.049840      -9.603569   -2.0468e-01    9.4339e-04
 1951   0.019915      -9.064541      -9.620187   -2.0468e-01    9.4339e-04
 1952   0.019912      -9.080349      -9.638285   -2.0468e-01    9.4339e-04
 1953   0.019913      -9.097444      -9.660963   -2.0468e-01    9.4339e-04
 1954   0.019911      -9.109354      -9.665385   -2.0468e-01    9.4339e-04
 1955   0.019909      -9.126383      -9.688808   -2.0468e-01    9.4339e-04
 1956   0.019914      -9.130461      -9.685145   -2.0468e-01    9.4339e-04
 1957   0.019910      -9.144652      -9.706868   -2.0468e-01    9.4339e-04
 1958   0.019908      -9.161022      -9.723998   -2.0468e-01    9.4339e-04
 1959   0.019905      -9.174390      -9.735439   -2.0468e-01    9.4339e-04
 1960   0.019906      -9.190269      -9.755215   -2.0468e-01    9.4339e-04
 1961   0.019909      -9.209279      -9.778937   -2.0468e-01    9.4339e-04
 1962   0.019909      -9.215227      -9.777407   -2.0468e-01    9.4339e-04
 1963   0.019905      -9.223268      -9.780396   -2.0468e-01    9.4339e-04
 1964   0.019936      -9.246680      -9.816589   -2.0468e-01    9.4339e-04
 1965   0.019971      -9.262169      -9.832234   -2.0468e-01    9.4339e-04
 1966   0.019999      -9.280631      -9.855417   -2.0468e-01    9.4339e-04
 1967   0.020000      -9.288912      -9.857739   -2.0468e-01    9.4339e-04
 1968   0.019996      -9.305710      -9.882299   -2.0468e-01    9.4339e-04
 1969   0.020032      -9.322710      -9.898997   -2.0468e-01    9.4339e-04
 1970   0.020066      -9.322188      -9.885968   -2.0468e-01    9.4339e-04
 1971   0.020078      -9.346635      -9.933245   -2.0468e-01    9.4339e-04
 1972   0.020080      -9.367602      -9.953742   -2.0468e-01    9.4339e-04
 1973   0.020075      -9.375394      -9.946971   -2.0468e-01    9.4339e-04
 1974   0.020068      -9.391897      -9.975571   -2.0468e-01    9.4339e-04
 1975   0.020058      -9.406490      -9.983345   -2.0468e-01    9.4339e-04
 1976   0.020048      -9.411318      -9.981104   -2.0468e-01    9.4339e-04
 1977   0.020041      -9.435645     -10.026088   -2.0468e-01    9.4339e-04
 1978   0.020053      -9.453755     -10.040765   -2.0468e-01    9.4338e-04

---------------------- Local Time Stepping Summary ----------------------
MG level: 0 -> Min. DT: 0.0003982. Max. DT: 2.903. CFL: 8.
MG level: 1 -> Min. DT: 0.0006398. Max. DT: 4.569. CFL: 6.687.
MG level: 2 -> Min. DT: 0.001247. Max. DT: 6.648. CFL: 5.916.
-------------------------------------------------------------------------

log10[Maximum residual]: -8.28.
Maximum residual point 980, located at (0.1254, 0.0824).

 Iter    Time(s)   Res[Psi_Rho]     Res[Psi_E]      Sens_Geo      Sens_AoA
 1979   0.020061      -9.458433     -10.024534   -2.0468e-01    9.4338e-04
 1980   0.020059      -9.480230     -10.070408   -2.0468e-01    9.4338e-04
 1981   0.020052      -9.493643     -10.073698   -2.0468e-01    9.4338e-04
 1982   0.020041      -9.511792     -10.100793   -2.0468e-01    9.4338e-04
 1983   0.020034      -9.524925     -10.102358   -2.0468e-01    9.4338e-04
 1984   0.020025      -9.537514     -10.113846   -2.0468e-01    9.4338e-04
 1985   0.020016      -9.543963     -10.107649   -2.0468e-01    9.4338e-04
 1986   0.020007      -9.563351     -10.149075   -2.0468e-01    9.4338e-04
 1987   0.019998      -9.575425     -10.150748   -2.0468e-01    9.4338e-04
 1988   0.019991      -9.588855     -10.160539   -2.0468e-01    9.4338e-04
 1989   0.019981      -9.603413     -10.180692   -2.0468e-01    9.4338e-04
 1990   0.019973      -9.612591     -10.181915   -2.0468e-01    9.4338e-04
 1991   0.019970      -9.629597     -10.213032   -2.0468e-01    9.4338e-04
 1992   0.019963      -9.645751     -10.231004   -2.0468e-01    9.4338e-04
 1993   0.019957      -9.657464     -10.229668   -2.0468e-01    9.4338e-04
 1994   0.019950      -9.669711     -10.246046   -2.0468e-01    9.4338e-04
 1995   0.019942      -9.680968     -10.256987   -2.0468e-01    9.4338e-04
 1996   0.019934      -9.693444     -10.272226   -2.0468e-01    9.4338e-04
 1997   0.019927      -9.704825     -10.279482   -2.0468e-01    9.4338e-04
 1998   0.019919      -9.717718     -10.294329   -2.0468e-01    9.4338e-04
 1999   0.019914      -9.730261     -10.307041   -2.0468e-01    9.4338e-04
 2000   0.019918      -9.742983     -10.320799   -2.0468e-01    9.4338e-04
 2001   0.019911      -9.756223     -10.334819   -2.0468e-01    9.4338e-04
 2002   0.019904      -9.769746     -10.349505   -2.0468e-01    9.4338e-04
 2003   0.019896      -9.783483     -10.363850   -2.0468e-01    9.4338e-04
 2004   0.019888      -9.797468     -10.379326   -2.0468e-01    9.4338e-04
 2005   0.019881      -9.811481     -10.393974   -2.0468e-01    9.4338e-04
 2006   0.019876      -9.825781     -10.410074   -2.0468e-01    9.4338e-04
 2007   0.019870      -9.840026     -10.424962   -2.0468e-01    9.4338e-04
 2008   0.019861      -9.854512     -10.441241   -2.0468e-01    9.4338e-04
 2009   0.019855      -9.868920     -10.456351   -2.0468e-01    9.4338e-04
 2010   0.019846      -9.883512     -10.472606   -2.0468e-01    9.4338e-04
 2011   0.019845      -9.897999     -10.487830   -2.0468e-01    9.4338e-04
 2012   0.019843      -9.912603     -10.503880   -2.0468e-01    9.4338e-04
 2013   0.019839      -9.927092     -10.519088   -2.0468e-01    9.4338e-04
 2014   0.019830      -9.941624     -10.534824   -2.0468e-01    9.4338e-04
 2015   0.019823      -9.956092     -10.549982   -2.0468e-01    9.4338e-04
 2016   0.019817      -9.970517     -10.565366   -2.0468e-01    9.4338e-04
 2017   0.019811      -9.985059     -10.580664   -2.0468e-01    9.4338e-04
 2018   0.019804      -9.999423     -10.595761   -2.0468e-01    9.4338e-04

---------------------- Local Time Stepping Summary ----------------------
MG level: 0 -> Min. DT: 0.0003982. Max. DT: 2.903. CFL: 8.
MG level: 1 -> Min. DT: 0.0006398. Max. DT: 4.569. CFL: 6.687.
MG level: 2 -> Min. DT: 0.001247. Max. DT: 6.648. CFL: 5.916.
-------------------------------------------------------------------------

log10[Maximum residual]: -8.828.
Maximum residual point 982, located at (0.1041, 0.07724).

 Iter    Time(s)   Res[Psi_Rho]     Res[Psi_E]      Sens_Geo      Sens_AoA
 2019   0.019796     -10.014545     -10.612194   -2.0468e-01    9.4338e-04
 2020   0.019793     -10.029210     -10.627571   -2.0468e-01    9.4338e-04
 2021   0.019785     -10.050737     -10.657487   -2.0468e-01    9.4338e-04
 2022   0.019787     -10.059025     -10.656875   -2.0468e-01    9.4338e-04
 2023   0.019817     -10.074965     -10.675576   -2.0468e-01    9.4338e-04
 2024   0.019838     -10.087518     -10.686991   -2.0468e-01    9.4338e-04
 2025   0.019840     -10.105865     -10.712465   -2.0468e-01    9.4338e-04
 2026   0.019835     -10.118363     -10.719738   -2.0468e-01    9.4338e-04
 2027   0.019828     -10.131564     -10.734766   -2.0468e-01    9.4338e-04
 2028   0.019824     -10.144869     -10.746934   -2.0468e-01    9.4338e-04
 2029   0.019819     -10.154423     -10.750115   -2.0468e-01    9.4338e-04
 2030   0.019812     -10.168680     -10.769649   -2.0468e-01    9.4338e-04
 2031   0.019814     -10.180190     -10.776908   -2.0468e-01    9.4338e-04
 2032   0.019815     -10.199130     -10.804170   -2.0468e-01    9.4338e-04
 2033   0.019814     -10.205003     -10.796100   -2.0468e-01    9.4338e-04
 2034   0.019815     -10.223036     -10.824223   -2.0468e-01    9.4338e-04
 2035   0.019811     -10.233249     -10.825194   -2.0468e-01    9.4338e-04
 2036   0.019804     -10.248519     -10.847727   -2.0468e-01    9.4338e-04
 2037   0.019796     -10.259063     -10.851314   -2.0468e-01    9.4338e-04
 2038   0.019790     -10.278072     -10.880530   -2.0468e-01    9.4338e-04
 2039   0.019784     -10.291872     -10.886737   -2.0468e-01    9.4338e-04
 2040   0.019779     -10.310938     -10.915297   -2.0468e-01    9.4338e-04
 2041   0.019773     -10.324770     -10.924893   -2.0468e-01    9.4338e-04
 2042   0.019771     -10.335526     -10.930368   -2.0468e-01    9.4338e-04
 2043   0.019769     -10.354482     -10.957178   -2.0468e-01    9.4338e-04
 2044   0.019767     -10.371001     -10.973117   -2.0468e-01    9.4338e-04
 2045   0.019760     -10.385266     -10.989497   -2.0468e-01    9.4338e-04
 2046   0.019755     -10.397778     -10.999695   -2.0468e-01    9.4338e-04
 2047   0.019750     -10.408628     -11.007538   -2.0468e-01    9.4338e-04
 2048   0.019747     -10.425864     -11.027988   -2.0468e-01    9.4338e-04
 2049   0.019742     -10.436088     -11.034475   -2.0468e-01    9.4338e-04
 2050   0.019734     -10.449514     -11.048217   -2.0468e-01    9.4338e-04
 2051   0.019729     -10.460901     -11.057700   -2.0468e-01    9.4338e-04
 2052   0.019722     -10.474229     -11.070839   -2.0468e-01    9.4338e-04
 2053   0.019715     -10.487662     -11.085502   -2.0468e-01    9.4338e-04
 2054   0.019745     -10.500723     -11.098305   -2.0468e-01    9.4338e-04
 2055   0.019740     -10.513334     -11.110693   -2.0468e-01    9.4338e-04
 2056   0.019734     -10.525981     -11.122806   -2.0468e-01    9.4338e-04
 2057   0.019728     -10.539419     -11.136769   -2.0468e-01    9.4338e-04
 2058   0.019721     -10.552740     -11.149802   -2.0468e-01    9.4338e-04

---------------------- Local Time Stepping Summary ----------------------
MG level: 0 -> Min. DT: 0.0003982. Max. DT: 2.903. CFL: 8.
MG level: 1 -> Min. DT: 0.0006398. Max. DT: 4.569. CFL: 6.687.
MG level: 2 -> Min. DT: 0.001247. Max. DT: 6.648. CFL: 5.916.
-------------------------------------------------------------------------

log10[Maximum residual]: -9.393.
Maximum residual point 795, located at (0.1224, 0.06805).

 Iter    Time(s)   Res[Psi_Rho]     Res[Psi_E]      Sens_Geo      Sens_AoA
 2059   0.019717     -10.566401     -11.163977   -2.0468e-01    9.4338e-04
 2060   0.019711     -10.579854     -11.177031   -2.0468e-01    9.4338e-04
 2061   0.019706     -10.593697     -11.191343   -2.0468e-01    9.4338e-04
 2062   0.019706     -10.607704     -11.205167   -2.0468e-01    9.4338e-04
 2063   0.019705     -10.621865     -11.219825   -2.0468e-01    9.4338e-04
 2064   0.019701     -10.636245     -11.234120   -2.0468e-01    9.4338e-04
 2065   0.019700     -10.650552     -11.248771   -2.0468e-01    9.4338e-04
 2066   0.019696     -10.665262     -11.263547   -2.0468e-01    9.4338e-04
 2067   0.019689     -10.679736     -11.278263   -2.0468e-01    9.4338e-04
 2068   0.019683     -10.694708     -11.293465   -2.0468e-01    9.4338e-04
 2069   0.019677     -10.709270     -11.308137   -2.0468e-01    9.4338e-04
 2070   0.019672     -10.724445     -11.323732   -2.0468e-01    9.4338e-04
 2071   0.019666     -10.739028     -11.338314   -2.0468e-01    9.4338e-04
 2072   0.019660     -10.754380     -11.354324   -2.0468e-01    9.4338e-04
 2073   0.019657     -10.768915     -11.368762   -2.0468e-01    9.4338e-04
 2074   0.019655     -10.784556     -11.385458   -2.0468e-01    9.4338e-04
 2075   0.019667     -10.799048     -11.399797   -2.0468e-01    9.4338e-04
 2076   0.019699     -10.815593     -11.418396   -2.0468e-01    9.4338e-04
 2077   0.019715     -10.830550     -11.433566   -2.0468e-01    9.4338e-04
 2078   0.019712     -10.852472     -11.463245   -2.0468e-01    9.4338e-04
 2079   0.019707     -10.863356     -11.468921   -2.0468e-01    9.4338e-04
 2080   0.019702     -10.883015     -11.494595   -2.0468e-01    9.4338e-04
 2081   0.019697     -10.896437     -11.507274   -2.0468e-01    9.4338e-04
 2082   0.019692     -10.908987     -11.517910   -2.0468e-01    9.4338e-04
 2083   0.019685     -10.919624     -11.524829   -2.0468e-01    9.4338e-04
 2084   0.019685     -10.936442     -11.544336   -2.0468e-01    9.4338e-04
 2085   0.019687     -10.953357     -11.564678   -2.0468e-01    9.4338e-04
 2086   0.019687     -10.962721     -11.569963   -2.0468e-01    9.4338e-04
 2087   0.019690     -10.976756     -11.583350   -2.0468e-01    9.4338e-04
 2088   0.019685     -10.988993     -11.594202   -2.0468e-01    9.4338e-04
 2089   0.019680     -11.001489     -11.607704   -2.0468e-01    9.4338e-04
 2090   0.019673     -11.021654     -11.631912   -2.0468e-01    9.4338e-04
 2091   0.019669     -11.030540     -11.636284   -2.0468e-01    9.4338e-04
 2092   0.019664     -11.045673     -11.650577   -2.0468e-01    9.4338e-04
 2093   0.019658     -11.057689     -11.660694   -2.0468e-01    9.4338e-04
 2094   0.019652     -11.071009     -11.673666   -2.0468e-01    9.4338e-04
 2095   0.019647     -11.084785     -11.686220   -2.0468e-01    9.4338e-04
 2096   0.019642     -11.098423     -11.699192   -2.0468e-01    9.4338e-04
 2097   0.019637     -11.121050     -11.733618   -2.0468e-01    9.4338e-04
 2098   0.019633     -11.130393     -11.733471   -2.0468e-01    9.4338e-04

---------------------- Local Time Stepping Summary ----------------------
MG level: 0 -> Min. DT: 0.0003982. Max. DT: 2.903. CFL: 8.
MG level: 1 -> Min. DT: 0.0006398. Max. DT: 4.569. CFL: 6.687.
MG level: 2 -> Min. DT: 0.001247. Max. DT: 6.648. CFL: 5.916.
-------------------------------------------------------------------------

log10[Maximum residual]: -9.933.
Maximum residual point 980, located at (0.1254, 0.0824).

 Iter    Time(s)   Res[Psi_Rho]     Res[Psi_E]      Sens_Geo      Sens_AoA
 2099   0.019630     -11.144609     -11.746528   -2.0468e-01    9.4338e-04
 2100   0.019625     -11.159821     -11.765732   -2.0468e-01    9.4338e-04
 2101   0.019619     -11.177675     -11.788212   -2.0468e-01    9.4338e-04
 2102   0.019613     -11.193414     -11.801079   -2.0468e-01    9.4338e-04
 2103   0.019610     -11.214385     -11.830383   -2.0468e-01    9.4338e-04
 2104   0.019606     -11.225115     -11.832928   -2.0468e-01    9.4338e-04
 2105   0.019600     -11.240903     -11.853505   -2.0468e-01    9.4338e-04
 2106   0.019599     -11.254322     -11.863641   -2.0468e-01    9.4338e-04
 2107   0.019595     -11.267163     -11.873899   -2.0468e-01    9.4338e-04
 2108   0.019609     -11.281275     -11.887379   -2.0468e-01    9.4338e-04
 2109   0.019603     -11.291940     -11.894347   -2.0468e-01    9.4338e-04
 2110   0.019597     -11.304265     -11.904844   -2.0468e-01    9.4338e-04
 2111   0.019594     -11.316370     -11.915770   -2.0468e-01    9.4338e-04
 2112   0.019589     -11.330136     -11.930408   -2.0468e-01    9.4338e-04
 2113   0.019584     -11.343889     -11.944787   -2.0468e-01    9.4338e-04
 2114   0.019580     -11.355230     -11.954453   -2.0468e-01    9.4338e-04
 2115   0.019576     -11.369011     -11.968686   -2.0468e-01    9.4338e-04
 2116   0.019571     -11.380253     -11.978116   -2.0468e-01    9.4338e-04
 2117   0.019566     -11.396632     -11.997454   -2.0468e-01    9.4338e-04
 2118   0.019561     -11.407582     -12.005900   -2.0468e-01    9.4338e-04
 2119   0.019557     -11.422487     -12.022447   -2.0468e-01    9.4338e-04
 2120   0.019552     -11.433749     -12.030983   -2.0468e-01    9.4338e-04
 2121   0.019548     -11.450550     -12.051300   -2.0468e-01    9.4338e-04
 2122   0.019543     -11.462535     -12.060828   -2.0468e-01    9.4338e-04
 2123   0.019538     -11.478317     -12.078900   -2.0468e-01    9.4338e-04

-------------------------- File Output Summary --------------------------
Writing comma-separated values (CSV) surface files.
Merging coordinates in the Master node.
Merging solution in the Master node.
Writing SU2 native restart file.
-------------------------------------------------------------------------

History file, closed.

------------------------- Solver Postprocessing -------------------------
Deleted CNumerics container.
Deleted CIntegration container.
Deleted CSolver container.
Deleted CIteration container.
Deleted CInterpolator container.
Deleted CTransfer container.
Deleted CGeometry container.
Deleted CFreeFormDefBox class.
Deleted CSurfaceMovement class.
Deleted CVolumetricMovement class.
Deleted CConfig container.
Deleted COutput class.
-------------------------------------------------------------------------

Completed in 8.3526 seconds on 8 cores.

------------------------- Exit Success (SU2_CFD) ------------------------


-------------------------------------------------------------------------
|    ___ _   _ ___                                                      |
|   / __| | | |_  )   Release 5.0.0  "Raven"                            |
|   \__ \ |_| |/ /                                                      |
|   |___/\___//___|   Suite (Solution Exporting Code)                   |
|                                                                       |
-------------------------------------------------------------------------
| SU2 Original Developers: Dr. Francisco D. Palacios.                   |
|                          Dr. Thomas D. Economon.                      |
-------------------------------------------------------------------------
| SU2 Developers:                                                       |
| - Prof. Juan J. Alonso's group at Stanford University.                |
| - Prof. Piero Colonna's group at Delft University of Technology.      |
| - Prof. Nicolas R. Gauger's group at Kaiserslautern U. of Technology. |
| - Prof. Alberto Guardone's group at Polytechnic University of Milan.  |
| - Prof. Rafael Palacios' group at Imperial College London.            |
| - Prof. Edwin van der Weide's group at the University of Twente.      |
| - Prof. Vincent Terrapon's group at the University of Liege.          |
-------------------------------------------------------------------------
| Copyright (C) 2012-2017 SU2, the open-source CFD code.                |
|                                                                       |
| SU2 is free software; you can redistribute it and/or                  |
| modify it under the terms of the GNU Lesser General Public            |
| License as published by the Free Software Foundation; either          |
| version 2.1 of the License, or (at your option) any later version.    |
|                                                                       |
| SU2 is distributed in the hope that it will be useful,                |
| but WITHOUT ANY WARRANTY; without even the implied warranty of        |
| MERCHANTABILITY or FITNESS FOR A PARTICULAR PURPOSE. See the GNU      |
| Lesser General Public License for more details.                       |
|                                                                       |
| You should have received a copy of the GNU Lesser General Public      |
| License along with SU2. If not, see <http://www.gnu.org/licenses/>.   |
-------------------------------------------------------------------------

------------------------ Physical Case Definition -----------------------
Input mesh file name: mesh_NACA0012_inv_deform.su2

-------------------------- Output Information ---------------------------
The output file format is Tecplot ASCII (.dat).
Flow variables file name: flow.

------------------- Config File Boundary Information --------------------
Euler wall boundary marker(s): airfoil.
Far-field boundary marker(s): farfield.

---------------------- Read Grid File Information -----------------------
Two dimensional problem.
5233 points before parallel partitioning.
Performing linear partitioning of the grid nodes.
10216 interior elements before parallel partitioning.
Calling the partitioning functions.
Building the graph adjacency structure.
Distributing elements across all ranks.
2 surface markers.
200 boundary elements in index 0 (Marker = airfoil).
50 boundary elements in index 1 (Marker = farfield).
Calling ParMETIS...
Finished partitioning using ParMETIS (547 edge cuts).
Communicating partition data and creating halo layers.
10763 interior elements including halo cells. 
10763 triangles.
5796 vertices including ghost points. 
Establishing MPI communication patterns.
Identify vertices.

------------------------- Solution Postprocessing -----------------------
Reading and storing the solution from restart_adj_cd.dat.
Merging connectivities in the Master node.
Merging solution in the Master node.
Writing Tecplot ASCII file (volume grid).
Writing Tecplot ASCII file (surface grid).

Completed in 0.113749 seconds on 8 cores.

------------------------- Exit Success (SU2_SOL) ------------------------


-------------------------------------------------------------------------
|    ___ _   _ ___                                                      |
|   / __| | | |_  )   Release 5.0.0  "Raven"                            |
|   \__ \ |_| |/ /                                                      |
|   |___/\___//___|   Suite (Gradient Projection Code)                  |
|                                                                       |
-------------------------------------------------------------------------
| SU2 Original Developers: Dr. Francisco D. Palacios.                   |
|                          Dr. Thomas D. Economon.                      |
-------------------------------------------------------------------------
| SU2 Developers:                                                       |
| - Prof. Juan J. Alonso's group at Stanford University.                |
| - Prof. Piero Colonna's group at Delft University of Technology.      |
| - Prof. Nicolas R. Gauger's group at Kaiserslautern U. of Technology. |
| - Prof. Alberto Guardone's group at Polytechnic University of Milan.  |
| - Prof. Rafael Palacios' group at Imperial College London.            |
| - Prof. Edwin van der Weide's group at the University of Twente.      |
| - Prof. Vincent Terrapon's group at the University of Liege.          |
-------------------------------------------------------------------------
| Copyright (C) 2012-2017 SU2, the open-source CFD code.                |
|                                                                       |
| SU2 is free software; you can redistribute it and/or                  |
| modify it under the terms of the GNU Lesser General Public            |
| License as published by the Free Software Foundation; either          |
| version 2.1 of the License, or (at your option) any later version.    |
|                                                                       |
| SU2 is distributed in the hope that it will be useful,                |
| but WITHOUT ANY WARRANTY; without even the implied warranty of        |
| MERCHANTABILITY or FITNESS FOR A PARTICULAR PURPOSE. See the GNU      |
| Lesser General Public License for more details.                       |
|                                                                       |
| You should have received a copy of the GNU Lesser General Public      |
| License along with SU2. If not, see <http://www.gnu.org/licenses/>.   |
-------------------------------------------------------------------------

------------------------ Physical Case Definition -----------------------
Input mesh file name: mesh_NACA0012_inv_deform.su2
Input sensitivity file name: surface_adjoint.

-------------------- Surface deformation parameters ---------------------
Design variables definition (markers <-> value <-> param):
Hicks Henne <-> airfoil <-> 0.001 <-> ( 0, 0.05 )
Hicks Henne <-> airfoil <-> 0.001 <-> ( 0, 0.1 )
Hicks Henne <-> airfoil <-> 0.001 <-> ( 0, 0.15 )
Hicks Henne <-> airfoil <-> 0.001 <-> ( 0, 0.2 )
Hicks Henne <-> airfoil <-> 0.001 <-> ( 0, 0.25 )
Hicks Henne <-> airfoil <-> 0.001 <-> ( 0, 0.3 )
Hicks Henne <-> airfoil <-> 0.001 <-> ( 0, 0.35 )
Hicks Henne <-> airfoil <-> 0.001 <-> ( 0, 0.4 )
Hicks Henne <-> airfoil <-> 0.001 <-> ( 0, 0.45 )
Hicks Henne <-> airfoil <-> 0.001 <-> ( 0, 0.5 )
Hicks Henne <-> airfoil <-> 0.001 <-> ( 0, 0.55 )
Hicks Henne <-> airfoil <-> 0.001 <-> ( 0, 0.6 )
Hicks Henne <-> airfoil <-> 0.001 <-> ( 0, 0.65 )
Hicks Henne <-> airfoil <-> 0.001 <-> ( 0, 0.7 )
Hicks Henne <-> airfoil <-> 0.001 <-> ( 0, 0.75 )
Hicks Henne <-> airfoil <-> 0.001 <-> ( 0, 0.8 )
Hicks Henne <-> airfoil <-> 0.001 <-> ( 0, 0.85 )
Hicks Henne <-> airfoil <-> 0.001 <-> ( 0, 0.9 )
Hicks Henne <-> airfoil <-> 0.001 <-> ( 0, 0.95 )
Hicks Henne <-> airfoil <-> 0.001 <-> ( 1, 0.05 )
Hicks Henne <-> airfoil <-> 0.001 <-> ( 1, 0.1 )
Hicks Henne <-> airfoil <-> 0.001 <-> ( 1, 0.15 )
Hicks Henne <-> airfoil <-> 0.001 <-> ( 1, 0.2 )
Hicks Henne <-> airfoil <-> 0.001 <-> ( 1, 0.25 )
Hicks Henne <-> airfoil <-> 0.001 <-> ( 1, 0.3 )
Hicks Henne <-> airfoil <-> 0.001 <-> ( 1, 0.35 )
Hicks Henne <-> airfoil <-> 0.001 <-> ( 1, 0.4 )
Hicks Henne <-> airfoil <-> 0.001 <-> ( 1, 0.45 )
Hicks Henne <-> airfoil <-> 0.001 <-> ( 1, 0.5 )
Hicks Henne <-> airfoil <-> 0.001 <-> ( 1, 0.55 )
Hicks Henne <-> airfoil <-> 0.001 <-> ( 1, 0.6 )
Hicks Henne <-> airfoil <-> 0.001 <-> ( 1, 0.65 )
Hicks Henne <-> airfoil <-> 0.001 <-> ( 1, 0.7 )
Hicks Henne <-> airfoil <-> 0.001 <-> ( 1, 0.75 )
Hicks Henne <-> airfoil <-> 0.001 <-> ( 1, 0.8 )
Hicks Henne <-> airfoil <-> 0.001 <-> ( 1, 0.85 )
Hicks Henne <-> airfoil <-> 0.001 <-> ( 1, 0.9 )
Hicks Henne <-> airfoil <-> 0.001 <-> ( 1, 0.95 )

----------------------- Design problem definition -----------------------
CD objective function.

-------------------------- Output Information ---------------------------
Output gradient file name: of_grad.dat. 

------------------- Config File Boundary Information --------------------
Euler wall boundary marker(s): airfoil.
Far-field boundary marker(s): farfield.

---------------------- Read Grid File Information -----------------------
Two dimensional problem.
5233 points before parallel partitioning.
Performing linear partitioning of the grid nodes.
10216 interior elements before parallel partitioning.
Calling the partitioning functions.
Building the graph adjacency structure.
Distributing elements across all ranks.
2 surface markers.
200 boundary elements in index 0 (Marker = airfoil).
50 boundary elements in index 1 (Marker = farfield).
Calling ParMETIS...
Finished partitioning using ParMETIS (547 edge cuts).
Communicating partition data and creating halo layers.
10763 interior elements including halo cells. 
10763 triangles.
5796 vertices including ghost points. 
Establishing MPI communication patterns.

----------------------- Preprocessing computations ----------------------
Setting local point connectivity.
Checking the numerical grid orientation.
Identify edges and vertices.
Computing centers of gravity.
Setting the bound control volume structure.
Reading surface sensitivities at each node from file.

---------- Start gradient evaluation using sensitivity information ----------
Evaluate functional gradient using Finite Differences.

Design variable (HICKS_HENNE) number 0.
DRAG gradient : -0.0420818
-------------------------------------------------------------------------

Design variable (HICKS_HENNE) number 1.
DRAG gradient : -0.0202749
-------------------------------------------------------------------------

Design variable (HICKS_HENNE) number 2.
DRAG gradient : -0.00805259
-------------------------------------------------------------------------

Design variable (HICKS_HENNE) number 3.
DRAG gradient : -0.00154467
-------------------------------------------------------------------------

Design variable (HICKS_HENNE) number 4.
DRAG gradient : 0.00126964
-------------------------------------------------------------------------

Design variable (HICKS_HENNE) number 5.
DRAG gradient : 0.00147118
-------------------------------------------------------------------------

Design variable (HICKS_HENNE) number 6.
DRAG gradient : -0.000260415
-------------------------------------------------------------------------

Design variable (HICKS_HENNE) number 7.
DRAG gradient : -0.00330656
-------------------------------------------------------------------------

Design variable (HICKS_HENNE) number 8.
DRAG gradient : -0.0069356
-------------------------------------------------------------------------

Design variable (HICKS_HENNE) number 9.
DRAG gradient : -0.0103235
-------------------------------------------------------------------------

Design variable (HICKS_HENNE) number 10.
DRAG gradient : -0.0127755
-------------------------------------------------------------------------

Design variable (HICKS_HENNE) number 11.
DRAG gradient : -0.0140477
-------------------------------------------------------------------------

Design variable (HICKS_HENNE) number 12.
DRAG gradient : -0.0145293
-------------------------------------------------------------------------

Design variable (HICKS_HENNE) number 13.
DRAG gradient : -0.0150269
-------------------------------------------------------------------------

Design variable (HICKS_HENNE) number 14.
DRAG gradient : -0.0162069
-------------------------------------------------------------------------

Design variable (HICKS_HENNE) number 15.
DRAG gradient : -0.0182646
-------------------------------------------------------------------------

Design variable (HICKS_HENNE) number 16.
DRAG gradient : -0.0213732
-------------------------------------------------------------------------

Design variable (HICKS_HENNE) number 17.
DRAG gradient : -0.0260718
-------------------------------------------------------------------------

Design variable (HICKS_HENNE) number 18.
DRAG gradient : -0.0307935
-------------------------------------------------------------------------

Design variable (HICKS_HENNE) number 19.
DRAG gradient : -0.0185815
-------------------------------------------------------------------------

Design variable (HICKS_HENNE) number 20.
DRAG gradient : 0.0695556
-------------------------------------------------------------------------

Design variable (HICKS_HENNE) number 21.
DRAG gradient : 0.114093
-------------------------------------------------------------------------

Design variable (HICKS_HENNE) number 22.
DRAG gradient : 0.120801
-------------------------------------------------------------------------

Design variable (HICKS_HENNE) number 23.
DRAG gradient : 0.0977884
-------------------------------------------------------------------------

Design variable (HICKS_HENNE) number 24.
DRAG gradient : 0.0559917
-------------------------------------------------------------------------

Design variable (HICKS_HENNE) number 25.
DRAG gradient : 0.00779206
-------------------------------------------------------------------------

Design variable (HICKS_HENNE) number 26.
DRAG gradient : -0.0348918
-------------------------------------------------------------------------

Design variable (HICKS_HENNE) number 27.
DRAG gradient : -0.0626056
-------------------------------------------------------------------------

Design variable (HICKS_HENNE) number 28.
DRAG gradient : -0.0702243
-------------------------------------------------------------------------

Design variable (HICKS_HENNE) number 29.
DRAG gradient : -0.0583496
-------------------------------------------------------------------------

Design variable (HICKS_HENNE) number 30.
DRAG gradient : -0.0335658
-------------------------------------------------------------------------

Design variable (HICKS_HENNE) number 31.
DRAG gradient : -0.00654265
-------------------------------------------------------------------------

Design variable (HICKS_HENNE) number 32.
DRAG gradient : 0.0126174
-------------------------------------------------------------------------

Design variable (HICKS_HENNE) number 33.
DRAG gradient : 0.0201736
-------------------------------------------------------------------------

Design variable (HICKS_HENNE) number 34.
DRAG gradient : 0.0206856
-------------------------------------------------------------------------

Design variable (HICKS_HENNE) number 35.
DRAG gradient : 0.0211801
-------------------------------------------------------------------------

Design variable (HICKS_HENNE) number 36.
DRAG gradient : 0.0239182
-------------------------------------------------------------------------

Design variable (HICKS_HENNE) number 37.
DRAG gradient : 0.0278889
-------------------------------------------------------------------------

Completed in 0.011237 seconds on 8 cores.

------------------------- Exit Success (SU2_DOT) ------------------------

