
-------------------------------------------------------------------------
|    ___ _   _ ___                                                      |
|   / __| | | |_  )   Release 5.0.0  "Raven"                            |
|   \__ \ |_| |/ /                                                      |
|   |___/\___//___|   Suite (Computational Fluid Dynamics Code)         |
|                                                                       |
-------------------------------------------------------------------------
| SU2 Original Developers: Dr. Francisco D. Palacios.                   |
|                          Dr. Thomas D. Economon.                      |
-------------------------------------------------------------------------
| SU2 Developers:                                                       |
| - Prof. Juan J. Alonso's group at Stanford University.                |
| - Prof. Piero Colonna's group at Delft University of Technology.      |
| - Prof. Nicolas R. Gauger's group at Kaiserslautern U. of Technology. |
| - Prof. Alberto Guardone's group at Polytechnic University of Milan.  |
| - Prof. Rafael Palacios' group at Imperial College London.            |
| - Prof. Edwin van der Weide's group at the University of Twente.      |
| - Prof. Vincent Terrapon's group at the University of Liege.          |
-------------------------------------------------------------------------
| Copyright (C) 2012-2017 SU2, the open-source CFD code.                |
|                                                                       |
| SU2 is free software; you can redistribute it and/or                  |
| modify it under the terms of the GNU Lesser General Public            |
| License as published by the Free Software Foundation; either          |
| version 2.1 of the License, or (at your option) any later version.    |
|                                                                       |
| SU2 is distributed in the hope that it will be useful,                |
| but WITHOUT ANY WARRANTY; without even the implied warranty of        |
| MERCHANTABILITY or FITNESS FOR A PARTICULAR PURPOSE. See the GNU      |
| Lesser General Public License for more details.                       |
|                                                                       |
| You should have received a copy of the GNU Lesser General Public      |
| License along with SU2. If not, see <http://www.gnu.org/licenses/>.   |
-------------------------------------------------------------------------

------------------------ Physical Case Definition -----------------------
Compressible Euler equations.
Mach number: 0.8.
Angle of attack (AoA): 1.25 deg, and angle of sideslip (AoS): 0 deg.
Read flow solution from: solution_flow.dat.
Non-Dimensional simulation (P=1.0, Rho=1.0, T=1.0 at the farfield).
The reference length/area (force coefficient) is 1.
The reference length (moment computation) is 1.
Reference origin (moment computation) is (0.25, 0, 0).
Surface(s) where the force coefficients are evaluated: airfoil.
Surface(s) plotted in the output file: airfoil.
Surface(s) affected by the design variables: airfoil.
Input mesh file name: mesh_deform.su2

---------------------- Space Numerical Integration ----------------------
Jameson-Schmidt-Turkel scheme for the flow inviscid terms.
JST viscous coefficients (1st, 2nd & 4th): 0.15, 0.5, 0.02.
The method includes a grid stretching correction (p = 0.3).
Second order integration.
Gradient computation using Green-Gauss theorem.

---------------------- Time Numerical Integration -----------------------
Local time stepping (steady state simulation).
Euler implicit method for the flow equations.
V Multigrid Cycle, with 2 multigrid levels.
Damping factor for the residual restriction: 1.
Damping factor for the correction prolongation: 1.
No CFL adaptation.
Multigrid Level:                       0     1     2
Courant-Friedrichs-Lewy number:       10
MG PreSmooth coefficients:             1     2     3
MG PostSmooth coefficients:            0     0     0
MG CorrecSmooth coefficients:          0     0     0

------------------------- Convergence Criteria --------------------------
Maximum number of iterations: 1000.
Reduce the density residual 6 orders of magnitude.
The minimum bound for the density residual is 10^(-10).
Start convergence criteria at iteration 10.

-------------------------- Output Information ---------------------------
Writing a flow solution every 250 iterations.
Writing the convergence history every 1 iterations.
The output file format is Paraview ASCII (.vtk).
Convergence history file name: history_direct.
Forces breakdown file name: forces_breakdown.dat.
Surface flow coefficients file name: surface_flow.
Flow variables file name: flow.
Restart flow file name: restart_flow.dat.

------------------- Config File Boundary Information --------------------
Euler wall boundary marker(s): airfoil.
Far-field boundary marker(s): farfield.

---------------------- Read Grid File Information -----------------------
Two dimensional problem.
5233 points before parallel partitioning.
Performing linear partitioning of the grid nodes.
10216 interior elements before parallel partitioning.
Calling the partitioning functions.
Building the graph adjacency structure.
Distributing elements across all ranks.
2 surface markers.
200 boundary elements in index 0 (Marker = airfoil).
50 boundary elements in index 1 (Marker = farfield).
Calling ParMETIS...
Finished partitioning using ParMETIS (547 edge cuts).
Communicating partition data and creating halo layers.
10763 interior elements including halo cells. 
10763 triangles.
5796 vertices including ghost points. 
Establishing MPI communication patterns.

------------------------- Geometry Preprocessing ------------------------
Setting point connectivity.
Renumbering points (Reverse Cuthill McKee Ordering).
Recomputing point connectivity.
Setting element connectivity.
Checking the numerical grid orientation.
Identifying edges and vertices.
Computing centers of gravity.
Setting the control volume structure.
Area of the computational grid: 1.3e+03.
Searching for the closest normal neighbors to the surfaces.
Compute the surface curvature.
Max K: 7.84e+03. Mean K: 35.7. Standard deviation K: 494.
Checking for periodicity.
Setting the multigrid structure.
MG level: 0 -> CVs: 5796. Agglomeration rate 1/1.00. CFL 10.
MG level: 1 -> CVs: 1800. Agglomeration rate 1/3.22. CFL 8.36.
MG level: 2 -> CVs: 626. Agglomeration rate 1/2.88. CFL 7.39.
Computing wall distances.
Wetted area = 2.03 m.
Area projection in the x-plane = 0.107 m, y-plane = 1 m.

------------------------- Driver information --------------------------
A Fluid driver has been instantiated.

------------------------ Iteration Preprocessing ------------------------
Zone 1: Euler/Navier-Stokes/RANS flow iteration.

------------------------- Solver Preprocessing --------------------------
Inviscid flow: Computing density based on free-stream
temperature and pressure using the ideal gas law.
Force coefficients computed using free-stream values.
-- Input conditions:
Fluid Model: STANDARD_AIR 
Specific gas constant: 287.058 N.m/kg.K.
Specific gas constant (non-dim): 1
Specific Heat Ratio: 1.4
Free-stream static pressure: 101325 Pa.
Free-stream total pressure: 154454 Pa.
Free-stream temperature: 288.15 K.
Free-stream density: 1.22498 kg/m^3.
Free-stream velocity: (272.173, 5.93883) m/s. Magnitude: 272.238 m/s (529.186 KTS).
Free-stream total energy per unit mass: 243846 m^2/s^2.
-- Reference values:
Reference specific gas constant: 287.058 N.m/kg.K.
Reference pressure: 101325 Pa.
Reference temperature: 288.15 K.
Reference density: 1.22498 kg/m^3.
Reference velocity: 287.603 m/s.
Reference energy per unit mass: 82715.8 m^2/s^2.
-- Resulting non-dimensional state:
Mach number (non-dim): 0.8
Specific gas constant (non-dim): 1
Free-stream temperature (non-dim): 1
Free-stream pressure (non-dim): 1
Free-stream density (non-dim): 1
Free-stream velocity (non-dim): (0.946348, 0.0206494). Magnitude: 0.946573
Free-stream total energy per unit mass (non-dim): 2.948

Initialize Jacobian structure (Euler). MG level: 0.
Initialize Jacobian structure (Euler). MG level: 1.
Initialize Jacobian structure (Euler). MG level: 2.

----------------- Integration and Numerics Preprocessing ----------------
Integration Preprocessing.
Numerics Preprocessing.

------------------------------ Begin Solver -----------------------------

---------------------- Local Time Stepping Summary ----------------------
MG level: 0 -> Min. DT: 0.000497807. Max. DT: 3.6287. CFL: 10.
MG level: 1 -> Min. DT: 0.000799997. Max. DT: 5.71115. CFL: 8.35917.
MG level: 2 -> Min. DT: 0.00155937. Max. DT: 8.31073. CFL: 7.39444.
-------------------------------------------------------------------------

----------------------- Residual Evolution Summary ----------------------
log10[Maximum residual]: -6.17964.
Maximum residual point 105, located at (0.00752, 0.0115529).
-------------------------------------------------------------------------

 Iter    Time(s)     Res[Rho]     Res[RhoE]      CL(Total)      CD(Total)
  558   0.019752    -7.300666     -6.704288       0.066583       0.000431
  559   0.019518    -7.342700     -6.740297       0.066591       0.000438
  560   0.019688    -7.325370     -6.727814       0.066597       0.000441
  561   0.019096    -7.309732     -6.709947       0.066602       0.000443
  562   0.018833    -7.283633     -6.682484       0.066609       0.000445
  563   0.018521    -7.248243     -6.647596       0.066617       0.000447
  564   0.018312    -7.213421     -6.613171       0.066624       0.000448
  565   0.018249    -7.184460     -6.584027       0.066631       0.000448
  566   0.018163    -7.162709     -6.562097       0.066637       0.000449
  567   0.018216    -7.146652     -6.545955       0.066643       0.000450
  568   0.018106    -7.135017     -6.534264       0.066648       0.000450
  569   0.018066    -7.126620     -6.525797       0.066652       0.000450
  570   0.018064    -7.120221     -6.519291       0.066656       0.000450
  571   0.018015    -7.114909     -6.513817       0.066660       0.000450
  572   0.018176    -7.110216     -6.508873       0.066663       0.000451
  573   0.018318    -7.105866     -6.504109       0.066666       0.000451
  574   0.018347    -7.101607     -6.499166       0.066668       0.000451
  575   0.018284    -7.097224     -6.493744       0.066671       0.000451
  576   0.018294    -7.092616     -6.487723       0.066673       0.000451
  577   0.018328    -7.087843     -6.481217       0.066675       0.000451
  578   0.018447    -7.083121     -6.474539       0.066676       0.000451
  579   0.018454    -7.078783     -6.468132       0.066678       0.000451
  580   0.018490    -7.075262     -6.462524       0.066679       0.000451
  581   0.018555    -7.073116     -6.458354       0.066681       0.000451
  582   0.018511    -7.073105     -6.456457       0.066682       0.000451
  583   0.018497    -7.076338     -6.458035       0.066683       0.000451
  584   0.018513    -7.084494     -6.464896       0.066684       0.000451
  585   0.018573    -7.100329     -6.480030       0.066685       0.000451
  586   0.018545    -7.128865     -6.508938       0.066686       0.000451
  587   0.018548    -7.180624     -6.563392       0.066687       0.000451
  588   0.018557    -7.277567     -6.669385       0.066687       0.000451
  589   0.018552    -7.374655     -6.780679       0.066689       0.000452
  590   0.018581    -7.392470     -6.801457       0.066691       0.000452
  591   0.018620    -7.411069     -6.823972       0.066693       0.000452
  592   0.018636    -7.446527     -6.867629       0.066695       0.000452
  593   0.018670    -7.475928     -6.903731       0.066698       0.000453
  594   0.018639    -7.474751     -6.902408       0.066701       0.000453
  595   0.018634    -7.468522     -6.895683       0.066703       0.000453
  596   0.018620    -7.480196     -6.910954       0.066706       0.000453
  597   0.018597    -7.502398     -6.939178       0.066708       0.000453

---------------------- Local Time Stepping Summary ----------------------
MG level: 0 -> Min. DT: 0.000497805. Max. DT: 3.6287. CFL: 10.
MG level: 1 -> Min. DT: 0.000799996. Max. DT: 5.71115. CFL: 8.35917.
MG level: 2 -> Min. DT: 0.00155936. Max. DT: 8.31073. CFL: 7.39444.
-------------------------------------------------------------------------

----------------------- Residual Evolution Summary ----------------------
log10[Maximum residual]: -6.40433.
Maximum residual point 2352, located at (0.474482, 0.429886).
-------------------------------------------------------------------------

 Iter    Time(s)     Res[Rho]     Res[RhoE]      CL(Total)      CD(Total)
  598   0.018589    -7.505962     -6.944627       0.066711       0.000453
  599   0.018599    -7.498384     -6.936982       0.066713       0.000453
  600   0.018709    -7.505261     -6.946728       0.066715       0.000453
  601   0.018860    -7.528216     -6.975783       0.066717       0.000453
  602   0.018852    -7.532426     -6.981227       0.066719       0.000453
  603   0.018828    -7.526246     -6.974083       0.066720       0.000453
  604   0.018825    -7.544262     -6.996256       0.066722       0.000453
  605   0.018863    -7.579089     -7.039095       0.066723       0.000453
  606   0.018873    -7.583856     -7.043261       0.066724       0.000453
  607   0.018844    -7.598917     -7.060283       0.066725       0.000453
  608   0.018914    -7.646312     -7.119735       0.066726       0.000453
  609   0.018883    -7.677332     -7.155042       0.066727       0.000452
  610   0.018848    -7.692791     -7.168343       0.066728       0.000452
  611   0.018811    -7.696604     -7.168592       0.066728       0.000452
  612   0.018787    -7.677893     -7.142133       0.066729       0.000452
  613   0.018781    -7.670954     -7.134039       0.066729       0.000452
  614   0.018755    -7.677531     -7.142291       0.066729       0.000452
  615   0.018728    -7.645267     -7.100161       0.066729       0.000452
  616   0.018699    -7.645287     -7.100626       0.066729       0.000452
  617   0.018682    -7.659852     -7.120143       0.066729       0.000452
  618   0.018663    -7.662147     -7.121679       0.066729       0.000452
  619   0.018690    -7.681545     -7.145931       0.066729       0.000452
  620   0.018757    -7.685743     -7.148844       0.066729       0.000452
  621   0.018837    -7.679125     -7.137753       0.066729       0.000452
  622   0.018888    -7.672917     -7.128586       0.066729       0.000452
  623   0.018951    -7.671023     -7.125685       0.066729       0.000452
  624   0.018945    -7.671425     -7.125665       0.066729       0.000452
  625   0.018929    -7.672076     -7.125690       0.066729       0.000452
  626   0.018915    -7.672687     -7.125545       0.066729       0.000452
  627   0.018889    -7.674065     -7.126406       0.066729       0.000452
  628   0.018858    -7.676831     -7.129074       0.066729       0.000452
  629   0.018835    -7.681161     -7.133711       0.066729       0.000452
  630   0.018813    -7.687122     -7.140343       0.066729       0.000452
  631   0.018794    -7.694847     -7.149106       0.066729       0.000452
  632   0.018763    -7.704479     -7.160159       0.066729       0.000452
  633   0.018741    -7.716072     -7.173544       0.066729       0.000452
  634   0.018727    -7.729581     -7.189182       0.066729       0.000452
  635   0.018699    -7.744938     -7.206969       0.066729       0.000452
  636   0.018691    -7.762090     -7.226833       0.066729       0.000452
  637   0.018670    -7.780983     -7.248697       0.066729       0.000452

---------------------- Local Time Stepping Summary ----------------------
MG level: 0 -> Min. DT: 0.000497809. Max. DT: 3.6287. CFL: 10.
MG level: 1 -> Min. DT: 0.000799997. Max. DT: 5.71115. CFL: 8.35917.
MG level: 2 -> Min. DT: 0.00155937. Max. DT: 8.31073. CFL: 7.39444.
-------------------------------------------------------------------------

----------------------- Residual Evolution Summary ----------------------
log10[Maximum residual]: -6.67812.
Maximum residual point 1582, located at (0.53728, 0.217746).
-------------------------------------------------------------------------

 Iter    Time(s)     Res[Rho]     Res[RhoE]      CL(Total)      CD(Total)
  638   0.018655    -7.801479     -7.272377       0.066729       0.000452
  639   0.018683    -7.823263     -7.297458       0.066729       0.000452
  640   0.018662    -7.845686     -7.323119       0.066729       0.000452
  641   0.018643    -7.867398     -7.347620       0.066729       0.000452
  642   0.018622    -7.885308     -7.366472       0.066729       0.000452
  643   0.018599    -7.896492     -7.376193       0.066729       0.000452
  644   0.018584    -7.901246     -7.378481       0.066729       0.000452
  645   0.018575    -7.898969     -7.372554       0.066729       0.000452
  646   0.018562    -7.893039     -7.363002       0.066729       0.000452
  647   0.018546    -7.887255     -7.354691       0.066729       0.000452
  648   0.018532    -7.884255     -7.350596       0.066729       0.000452
  649   0.018520    -7.884810     -7.351243       0.066729       0.000452
  650   0.018505    -7.888647     -7.355959       0.066729       0.000452
  651   0.018491    -7.895332     -7.364016       0.066729       0.000452
  652   0.018475    -7.904737     -7.375199       0.066729       0.000452
  653   0.018463    -7.916752     -7.389333       0.066729       0.000452
  654   0.018454    -7.931198     -7.406132       0.066729       0.000452
  655   0.018478    -7.947997     -7.425466       0.066729       0.000452
  656   0.018490    -7.967174     -7.447359       0.066729       0.000452
  657   0.018539    -7.988583     -7.471604       0.066729       0.000452
  658   0.018532    -8.011605     -7.497362       0.066729       0.000452
  659   0.018522    -8.035137     -7.523191       0.066729       0.000452
  660   0.018507    -8.058063     -7.547731       0.066729       0.000452
  661   0.018495    -8.079720     -7.570330       0.066729       0.000452
  662   0.018478    -8.099864     -7.590871       0.066729       0.000452
  663   0.018464    -8.118620     -7.609645       0.066730       0.000452
  664   0.018456    -8.136760     -7.627800       0.066730       0.000452
  665   0.018439    -8.155100     -7.646419       0.066730       0.000452
  666   0.018429    -8.173657     -7.665316       0.066730       0.000452
  667   0.018419    -8.192145     -7.683957       0.066730       0.000452
  668   0.018409    -8.210414     -7.702184       0.066730       0.000452
  669   0.018395    -8.228355     -7.719931       0.066730       0.000452
  670   0.018389    -8.245982     -7.737297       0.066730       0.000452
  671   0.018377    -8.263399     -7.754446       0.066730       0.000452
  672   0.018365    -8.280763     -7.771604       0.066730       0.000452
  673   0.018351    -8.298267     -7.789098       0.066730       0.000452
  674   0.018341    -8.317340     -7.808932       0.066730       0.000452
  675   0.018334    -8.336412     -7.828350       0.066731       0.000452
  676   0.018326    -8.353374     -7.844544       0.066731       0.000452
  677   0.018330    -8.376362     -7.870089       0.066731       0.000452

---------------------- Local Time Stepping Summary ----------------------
MG level: 0 -> Min. DT: 0.000497808. Max. DT: 3.6287. CFL: 10.
MG level: 1 -> Min. DT: 0.000799997. Max. DT: 5.71115. CFL: 8.35917.
MG level: 2 -> Min. DT: 0.00155937. Max. DT: 8.31073. CFL: 7.39444.
-------------------------------------------------------------------------

----------------------- Residual Evolution Summary ----------------------
log10[Maximum residual]: -7.17359.
Maximum residual point 407, located at (0.551932, 0.0591102).
-------------------------------------------------------------------------

 Iter    Time(s)     Res[Rho]     Res[RhoE]      CL(Total)      CD(Total)
  678   0.018331    -8.394146     -7.887002       0.066731       0.000452
  679   0.018327    -8.416951     -7.911548       0.066731       0.000452
  680   0.018323    -8.438148     -7.933248       0.066731       0.000452
  681   0.018336    -8.459403     -7.954633       0.066731       0.000452
  682   0.018335    -8.479599     -7.974486       0.066731       0.000452
  683   0.018364    -8.499952     -7.994804       0.066731       0.000452
  684   0.018443    -8.520449     -8.015200       0.066731       0.000452
  685   0.018499    -8.540354     -8.034869       0.066731       0.000452
  686   0.018547    -8.560644     -8.054893       0.066731       0.000452
  687   0.018577    -8.582065     -8.076768       0.066731       0.000452
  688   0.018598    -8.604214     -8.099242       0.066731       0.000452
  689   0.018623    -8.626440     -8.121577       0.066731       0.000452
  690   0.018643    -8.649448     -8.144802       0.066731       0.000452
  691   0.018659    -8.673585     -8.169563       0.066731       0.000452
  692   0.018680    -8.698508     -8.195041       0.066731       0.000452
  693   0.018708    -8.724009     -8.221024       0.066731       0.000452
  694   0.018730    -8.750086     -8.247526       0.066731       0.000452
  695   0.018742    -8.776936     -8.274975       0.066731       0.000452
  696   0.018758    -8.804092     -8.302514       0.066731       0.000452
  697   0.018792    -8.831594     -8.330386       0.066731       0.000452
  698   0.018824    -8.858927     -8.357761       0.066731       0.000452
  699   0.018850    -8.886511     -8.385442       0.066731       0.000452
  700   0.018871    -8.913330     -8.411804       0.066731       0.000452
  701   0.018893    -8.940000     -8.438024       0.066731       0.000452
  702   0.018937    -8.966051     -8.463425       0.066731       0.000452
  703   0.018978    -8.990270     -8.486072       0.066731       0.000452
  704   0.019014    -9.007922     -8.499656       0.066731       0.000452
  705   0.019030    -9.035431     -8.529193       0.066731       0.000452
  706   0.019031    -9.062214     -8.556895       0.066731       0.000452
  707   0.019044    -9.079427     -8.569471       0.066731       0.000452
  708   0.019083    -9.104908     -8.595757       0.066731       0.000452
  709   0.019112    -9.134952     -8.628877       0.066731       0.000452
  710   0.019102    -9.157038     -8.648358       0.066731       0.000452
  711   0.019088    -9.179611     -8.669360       0.066731       0.000452
  712   0.019074    -9.207313     -8.698788       0.066731       0.000452
  713   0.019059    -9.235275     -8.727680       0.066731       0.000452
  714   0.019046    -9.259897     -8.750904       0.066731       0.000452
  715   0.019032    -9.282630     -8.772047       0.066731       0.000452
  716   0.019020    -9.307301     -8.796841       0.066731       0.000452
  717   0.019006    -9.331835     -8.821451       0.066731       0.000452

---------------------- Local Time Stepping Summary ----------------------
MG level: 0 -> Min. DT: 0.000497808. Max. DT: 3.6287. CFL: 10.
MG level: 1 -> Min. DT: 0.000799997. Max. DT: 5.71115. CFL: 8.35917.
MG level: 2 -> Min. DT: 0.00155937. Max. DT: 8.31073. CFL: 7.39444.
-------------------------------------------------------------------------

----------------------- Residual Evolution Summary ----------------------
log10[Maximum residual]: -8.19658.
Maximum residual point 378, located at (0.394397, 0.0615036).
-------------------------------------------------------------------------

 Iter    Time(s)     Res[Rho]     Res[RhoE]      CL(Total)      CD(Total)
  718   0.018994    -9.352067     -8.839745       0.066731       0.000452
  719   0.018983    -9.371899     -8.858279       0.066731       0.000452
  720   0.018972    -9.395158     -8.882369       0.066731       0.000452
  721   0.018962    -9.418589     -8.906348       0.066731       0.000452
  722   0.018951    -9.440707     -8.928103       0.066731       0.000452
  723   0.018940    -9.466496     -8.955379       0.066731       0.000452
  724   0.018949    -9.495493     -8.986928       0.066731       0.000452
  725   0.018977    -9.520111     -9.011021       0.066731       0.000452
  726   0.019006    -9.540086     -9.028811       0.066731       0.000452
  727   0.019031    -9.568810     -9.060435       0.066731       0.000452
  728   0.019051    -9.595773     -9.088654       0.066731       0.000452
  729   0.019044    -9.611060     -9.099562       0.066731       0.000452
  730   0.019036    -9.627878     -9.114870       0.066731       0.000452
  731   0.019026    -9.652637     -9.142571       0.066731       0.000452
  732   0.019017    -9.670737     -9.159473       0.066731       0.000452
  733   0.019005    -9.690505     -9.178954       0.066731       0.000452
  734   0.018995    -9.708277     -9.196066       0.066731       0.000452
  735   0.018983    -9.720923     -9.206290       0.066731       0.000452
  736   0.018971    -9.737380     -9.222868       0.066731       0.000452
  737   0.018960    -9.756550     -9.243240       0.066731       0.000452
  738   0.018951    -9.769262     -9.253907       0.066731       0.000452
  739   0.018946    -9.782877     -9.266538       0.066731       0.000452
  740   0.018936    -9.802185     -9.287662       0.066731       0.000452
  741   0.018924    -9.816404     -9.300785       0.066731       0.000452
  742   0.018913    -9.824068     -9.305070       0.066731       0.000452
  743   0.018906    -9.837522     -9.318631       0.066731       0.000452
  744   0.018897    -9.854989     -9.337742       0.066731       0.000452
  745   0.018890    -9.864740     -9.345227       0.066731       0.000452
  746   0.018884    -9.873021     -9.351303       0.066731       0.000452
  747   0.018876    -9.890706     -9.371198       0.066731       0.000452
  748   0.018866    -9.907821     -9.389439       0.066730       0.000452
  749   0.018859    -9.914043     -9.392012       0.066730       0.000452
  750   0.018852    -9.924697     -9.401836       0.066730       0.000452
  751   0.018843    -9.946994     -9.428288       0.066730       0.000452
  752   0.018837    -9.961134     -9.441740       0.066730       0.000452
  753   0.018827    -9.965677     -9.442053       0.066730       0.000452
  754   0.018817    -9.984254     -9.463199       0.066730       0.000452
  755   0.018807   -10.009045     -9.492403       0.066730       0.000452

-------------------------- File Output Summary --------------------------
Writing comma-separated values (CSV) surface files.
Merging coordinates in the Master node.
Merging solution in the Master node.
Writing SU2 native restart file.
Writing the forces breakdown file.
-------------------------------------------------------------------------

History file, closed.

------------------------- Solver Postprocessing -------------------------
Deleted CNumerics container.
Deleted CIntegration container.
Deleted CSolver container.
Deleted CIteration container.
Deleted CInterpolator container.
Deleted CTransfer container.
Deleted CGeometry container.
Deleted CFreeFormDefBox class.
Deleted CSurfaceMovement class.
Deleted CVolumetricMovement class.
Deleted CConfig container.
Deleted COutput class.
-------------------------------------------------------------------------

Completed in 3.778437 seconds on 8 cores.

------------------------- Exit Success (SU2_CFD) ------------------------


-------------------------------------------------------------------------
|    ___ _   _ ___                                                      |
|   / __| | | |_  )   Release 5.0.0  "Raven"                            |
|   \__ \ |_| |/ /                                                      |
|   |___/\___//___|   Suite (Solution Exporting Code)                   |
|                                                                       |
-------------------------------------------------------------------------
| SU2 Original Developers: Dr. Francisco D. Palacios.                   |
|                          Dr. Thomas D. Economon.                      |
-------------------------------------------------------------------------
| SU2 Developers:                                                       |
| - Prof. Juan J. Alonso's group at Stanford University.                |
| - Prof. Piero Colonna's group at Delft University of Technology.      |
| - Prof. Nicolas R. Gauger's group at Kaiserslautern U. of Technology. |
| - Prof. Alberto Guardone's group at Polytechnic University of Milan.  |
| - Prof. Rafael Palacios' group at Imperial College London.            |
| - Prof. Edwin van der Weide's group at the University of Twente.      |
| - Prof. Vincent Terrapon's group at the University of Liege.          |
-------------------------------------------------------------------------
| Copyright (C) 2012-2017 SU2, the open-source CFD code.                |
|                                                                       |
| SU2 is free software; you can redistribute it and/or                  |
| modify it under the terms of the GNU Lesser General Public            |
| License as published by the Free Software Foundation; either          |
| version 2.1 of the License, or (at your option) any later version.    |
|                                                                       |
| SU2 is distributed in the hope that it will be useful,                |
| but WITHOUT ANY WARRANTY; without even the implied warranty of        |
| MERCHANTABILITY or FITNESS FOR A PARTICULAR PURPOSE. See the GNU      |
| Lesser General Public License for more details.                       |
|                                                                       |
| You should have received a copy of the GNU Lesser General Public      |
| License along with SU2. If not, see <http://www.gnu.org/licenses/>.   |
-------------------------------------------------------------------------

------------------------ Physical Case Definition -----------------------
Input mesh file name: mesh_deform.su2

-------------------------- Output Information ---------------------------
The output file format is Paraview ASCII (.vtk).
Flow variables file name: flow.

------------------- Config File Boundary Information --------------------
Euler wall boundary marker(s): airfoil.
Far-field boundary marker(s): farfield.

---------------------- Read Grid File Information -----------------------
Two dimensional problem.
5233 points before parallel partitioning.
Performing linear partitioning of the grid nodes.
10216 interior elements before parallel partitioning.
Calling the partitioning functions.
Building the graph adjacency structure.
Distributing elements across all ranks.
2 surface markers.
200 boundary elements in index 0 (Marker = airfoil).
50 boundary elements in index 1 (Marker = farfield).
Calling ParMETIS...
Finished partitioning using ParMETIS (547 edge cuts).
Communicating partition data and creating halo layers.
10763 interior elements including halo cells. 
10763 triangles.
5796 vertices including ghost points. 
Establishing MPI communication patterns.
Identify vertices.

------------------------- Solution Postprocessing -----------------------
Reading and storing the solution from restart_flow.dat.
Merging connectivities in the Master node.
Merging solution in the Master node.
Writing Paraview ASCII file (volume grid).
Writing Paraview ASCII file (surface grid).

Completed in 0.056335 seconds on 8 cores.

------------------------- Exit Success (SU2_SOL) ------------------------

