
-------------------------------------------------------------------------
|    ___ _   _ ___                                                      |
|   / __| | | |_  )   Release 5.0.0  "Raven"                            |
|   \__ \ |_| |/ /                                                      |
|   |___/\___//___|   Suite (Computational Fluid Dynamics Code)         |
|                                                                       |
-------------------------------------------------------------------------
| SU2 Original Developers: Dr. Francisco D. Palacios.                   |
|                          Dr. Thomas D. Economon.                      |
-------------------------------------------------------------------------
| SU2 Developers:                                                       |
| - Prof. Juan J. Alonso's group at Stanford University.                |
| - Prof. Piero Colonna's group at Delft University of Technology.      |
| - Prof. Nicolas R. Gauger's group at Kaiserslautern U. of Technology. |
| - Prof. Alberto Guardone's group at Polytechnic University of Milan.  |
| - Prof. Rafael Palacios' group at Imperial College London.            |
| - Prof. Edwin van der Weide's group at the University of Twente.      |
| - Prof. Vincent Terrapon's group at the University of Liege.          |
-------------------------------------------------------------------------
| Copyright (C) 2012-2017 SU2, the open-source CFD code.                |
|                                                                       |
| SU2 is free software; you can redistribute it and/or                  |
| modify it under the terms of the GNU Lesser General Public            |
| License as published by the Free Software Foundation; either          |
| version 2.1 of the License, or (at your option) any later version.    |
|                                                                       |
| SU2 is distributed in the hope that it will be useful,                |
| but WITHOUT ANY WARRANTY; without even the implied warranty of        |
| MERCHANTABILITY or FITNESS FOR A PARTICULAR PURPOSE. See the GNU      |
| Lesser General Public License for more details.                       |
|                                                                       |
| You should have received a copy of the GNU Lesser General Public      |
| License along with SU2. If not, see <http://www.gnu.org/licenses/>.   |
-------------------------------------------------------------------------

------------------------ Physical Case Definition -----------------------
Compressible Euler equations.
Mach number: 0.8.
Angle of attack (AoA): 1.25 deg, and angle of sideslip (AoS): 0 deg.
No restart solution, use the values at infinity (freestream).
Non-Dimensional simulation (P=1.0, Rho=1.0, T=1.0 at the farfield).
The reference length/area (force coefficient) is 1.
The reference length (moment computation) is 1.
Reference origin (moment computation) is (0.25, 0, 0).
Surface(s) where the force coefficients are evaluated: airfoil.
Surface(s) plotted in the output file: airfoil.
Surface(s) affected by the design variables: airfoil.
Input mesh file name: mesh.su2

---------------------- Space Numerical Integration ----------------------
Jameson-Schmidt-Turkel scheme for the flow inviscid terms.
JST viscous coefficients (1st, 2nd & 4th): 0.15, 0.5, 0.02.
The method includes a grid stretching correction (p = 0.3).
Second order integration.
Gradient computation using Green-Gauss theorem.

---------------------- Time Numerical Integration -----------------------
Local time stepping (steady state simulation).
Euler implicit method for the flow equations.
V Multigrid Cycle, with 2 multigrid levels.
Damping factor for the residual restriction: 1.
Damping factor for the correction prolongation: 1.
No CFL adaptation.
Multigrid Level:                       0     1     2
Courant-Friedrichs-Lewy number:       10
MG PreSmooth coefficients:             1     2     3
MG PostSmooth coefficients:            0     0     0
MG CorrecSmooth coefficients:          0     0     0

------------------------- Convergence Criteria --------------------------
Maximum number of iterations: 1000.
Reduce the density residual 6 orders of magnitude.
The minimum bound for the density residual is 10^(-10).
Start convergence criteria at iteration 10.

-------------------------- Output Information ---------------------------
Writing a flow solution every 250 iterations.
Writing the convergence history every 1 iterations.
The output file format is Paraview ASCII (.vtk).
Convergence history file name: history_direct.
Forces breakdown file name: forces_breakdown.dat.
Surface flow coefficients file name: surface_flow.
Flow variables file name: flow.
Restart flow file name: restart_flow.dat.

------------------- Config File Boundary Information --------------------
Euler wall boundary marker(s): airfoil.
Far-field boundary marker(s): farfield.

---------------------- Read Grid File Information -----------------------
Two dimensional problem.
5233 points before parallel partitioning.
Performing linear partitioning of the grid nodes.
10216 interior elements before parallel partitioning.
Calling the partitioning functions.
Building the graph adjacency structure.
Distributing elements across all ranks.
2 surface markers.
200 boundary elements in index 0 (Marker = airfoil).
50 boundary elements in index 1 (Marker = farfield).
Calling ParMETIS...
Finished partitioning using ParMETIS (547 edge cuts).
Communicating partition data and creating halo layers.
10763 interior elements including halo cells. 
10763 triangles.
5796 vertices including ghost points. 
Establishing MPI communication patterns.

------------------------- Geometry Preprocessing ------------------------
Setting point connectivity.
Renumbering points (Reverse Cuthill McKee Ordering).
Recomputing point connectivity.
Setting element connectivity.
Checking the numerical grid orientation.
Identifying edges and vertices.
Computing centers of gravity.
Setting the control volume structure.
Area of the computational grid: 1.3e+03.
Searching for the closest normal neighbors to the surfaces.
Compute the surface curvature.
Max K: 7.84e+03. Mean K: 35.7. Standard deviation K: 494.
Checking for periodicity.
Setting the multigrid structure.
MG level: 0 -> CVs: 5796. Agglomeration rate 1/1.00. CFL 10.
MG level: 1 -> CVs: 1800. Agglomeration rate 1/3.22. CFL 8.36.
MG level: 2 -> CVs: 626. Agglomeration rate 1/2.88. CFL 7.39.
Computing wall distances.
Wetted area = 2.03 m.
Area projection in the x-plane = 0.107 m, y-plane = 1 m.

------------------------- Driver information --------------------------
A Fluid driver has been instantiated.

------------------------ Iteration Preprocessing ------------------------
Zone 1: Euler/Navier-Stokes/RANS flow iteration.

------------------------- Solver Preprocessing --------------------------
Inviscid flow: Computing density based on free-stream
temperature and pressure using the ideal gas law.
Force coefficients computed using free-stream values.
-- Input conditions:
Fluid Model: STANDARD_AIR 
Specific gas constant: 287.058 N.m/kg.K.
Specific gas constant (non-dim): 1
Specific Heat Ratio: 1.4
Free-stream static pressure: 101325 Pa.
Free-stream total pressure: 154454 Pa.
Free-stream temperature: 288.15 K.
Free-stream density: 1.22498 kg/m^3.
Free-stream velocity: (272.173, 5.93883) m/s. Magnitude: 272.238 m/s (529.186 KTS).
Free-stream total energy per unit mass: 243846 m^2/s^2.
-- Reference values:
Reference specific gas constant: 287.058 N.m/kg.K.
Reference pressure: 101325 Pa.
Reference temperature: 288.15 K.
Reference density: 1.22498 kg/m^3.
Reference velocity: 287.603 m/s.
Reference energy per unit mass: 82715.8 m^2/s^2.
-- Resulting non-dimensional state:
Mach number (non-dim): 0.8
Specific gas constant (non-dim): 1
Free-stream temperature (non-dim): 1
Free-stream pressure (non-dim): 1
Free-stream density (non-dim): 1
Free-stream velocity (non-dim): (0.946348, 0.0206494). Magnitude: 0.946573
Free-stream total energy per unit mass (non-dim): 2.948

Initialize Jacobian structure (Euler). MG level: 0.
Initialize Jacobian structure (Euler). MG level: 1.
Initialize Jacobian structure (Euler). MG level: 2.

----------------- Integration and Numerics Preprocessing ----------------
Integration Preprocessing.
Numerics Preprocessing.

------------------------------ Begin Solver -----------------------------

---------------------- Local Time Stepping Summary ----------------------
MG level: 0 -> Min. DT: 0.000447237. Max. DT: 3.62864. CFL: 10.
MG level: 1 -> Min. DT: 0.000739105. Max. DT: 5.71197. CFL: 8.35917.
MG level: 2 -> Min. DT: 0.00149953. Max. DT: 8.31167. CFL: 7.39444.
-------------------------------------------------------------------------

----------------------- Residual Evolution Summary ----------------------
log10[Maximum residual]: -2.57524.
Maximum residual point 97, located at (0.00056, -0.00420624).
-------------------------------------------------------------------------

 Iter    Time(s)     Res[Rho]     Res[RhoE]      CL(Total)      CD(Total)
    0   0.021244    -3.630143     -3.033766       0.079142       0.139169
    1   0.021611    -3.682048     -3.063270       0.039264       0.077527
    2   0.021648    -3.757973     -3.153202       0.044043       0.066287
    3   0.022290    -3.708391     -3.101527       0.052462       0.062542
    4   0.022293    -3.651460     -3.043296       0.055940       0.055322
    5   0.022763    -3.609531     -3.003485       0.055570       0.048036
    6   0.022996    -3.577351     -2.973592       0.052045       0.041979
    7   0.023100    -3.558774     -2.956053       0.047153       0.037660
    8   0.022734    -3.563780     -2.962437       0.043908       0.033013
    9   0.022673    -3.580886     -2.980571       0.044768       0.027376
   10   0.022603    -3.597127     -2.996176       0.047371       0.022427
   11   0.022678    -3.607579     -3.003372       0.049804       0.019262
   12   0.022932    -3.614766     -3.006002       0.051246       0.017252
   13   0.022929    -3.623182     -3.010295       0.052134       0.015579
   14   0.022976    -3.634524     -3.018433       0.052875       0.014181
   15   0.023063    -3.649977     -3.031467       0.053633       0.013176
   16   0.023198    -3.668287     -3.047688       0.054271       0.012505
   17   0.023189    -3.686784     -3.063888       0.054642       0.012061
   18   0.023209    -3.703241     -3.077448       0.054837       0.011826
   19   0.023188    -3.715922     -3.086629       0.055035       0.011784
   20   0.023102    -3.724192     -3.091201       0.055312       0.011888
   21   0.022893    -3.728765     -3.092403       0.055674       0.012071
   22   0.022732    -3.731517     -3.092469       0.056124       0.012271
   23   0.022520    -3.734865     -3.093919       0.056688       0.012431
   24   0.022386    -3.741406     -3.099252       0.057435       0.012508
   25   0.022349    -3.753807     -3.110993       0.058449       0.012469
   26   0.022250    -3.775605     -3.132590       0.059766       0.012250
   27   0.022100    -3.815204     -3.172515       0.061425       0.011710
   28   0.022021    -3.900045     -3.259093       0.063981       0.010503
   29   0.021874    -4.107811     -3.475570       0.066920       0.008746
   30   0.021780    -4.234993     -3.613895       0.067618       0.007404
   31   0.021669    -4.267296     -3.643464       0.067677       0.006507
   32   0.021544    -4.266007     -3.636317       0.067210       0.005585
   33   0.021437    -4.289912     -3.662536       0.066725       0.004438
   34   0.021311    -4.344973     -3.727243       0.066258       0.003499
   35   0.021194    -4.382897     -3.770649       0.065612       0.003027
   36   0.021095    -4.380835     -3.765751       0.064776       0.002594
   37   0.021000    -4.375901     -3.759575       0.064044       0.001913
   38   0.020898    -4.387231     -3.773116       0.063646       0.001341
   39   0.020803    -4.401489     -3.789664       0.063419       0.000962

---------------------- Local Time Stepping Summary ----------------------
MG level: 0 -> Min. DT: 0.000501118. Max. DT: 3.62874. CFL: 10.
MG level: 1 -> Min. DT: 0.000805192. Max. DT: 5.71109. CFL: 8.35917.
MG level: 2 -> Min. DT: 0.00157093. Max. DT: 8.31071. CFL: 7.39444.
-------------------------------------------------------------------------

----------------------- Residual Evolution Summary ----------------------
log10[Maximum residual]: -3.5893.
Maximum residual point 2486, located at (0.572319, 0.487633).
-------------------------------------------------------------------------

 Iter    Time(s)     Res[Rho]     Res[RhoE]      CL(Total)      CD(Total)
   40   0.020728    -4.413434     -3.803512       0.063237       0.000637
   41   0.020621    -4.426075     -3.817875       0.063082       0.000407
   42   0.020550    -4.436737     -3.829206       0.062980       0.000310
   43   0.020558    -4.443458     -3.835488       0.062935       0.000286
   44   0.020517    -4.449051     -3.840292       0.062937       0.000305
   45   0.020582    -4.454708     -3.845103       0.062981       0.000364
   46   0.020539    -4.459783     -3.849247       0.063050       0.000445
   47   0.020543    -4.465229     -3.853792       0.063131       0.000528
   48   0.020495    -4.471899     -3.859648       0.063218       0.000606
   49   0.020417    -4.479790     -3.866738       0.063308       0.000675
   50   0.020346    -4.488976     -3.875092       0.063397       0.000727
   51   0.020262    -4.499551     -3.884790       0.063485       0.000763
   52   0.020183    -4.511516     -3.895811       0.063572       0.000780
   53   0.020108    -4.524903     -3.908190       0.063658       0.000781
   54   0.020042    -4.539855     -3.922096       0.063744       0.000767
   55   0.019982    -4.556537     -3.937738       0.063832       0.000739
   56   0.019926    -4.575116     -3.955335       0.063922       0.000702
   57   0.019864    -4.595758     -3.975113       0.064016       0.000657
   58   0.019805    -4.618697     -3.997365       0.064116       0.000609
   59   0.019747    -4.644091     -4.022298       0.064220       0.000559
   60   0.019694    -4.671862     -4.049851       0.064331       0.000511
   61   0.019643    -4.701658     -4.079654       0.064450       0.000467
   62   0.019589    -4.733137     -4.111327       0.064578       0.000429
   63   0.019536    -4.766096     -4.144625       0.064715       0.000397
   64   0.019484    -4.800356     -4.179330       0.064865       0.000372
   65   0.019428    -4.835864     -4.215374       0.065028       0.000355
   66   0.019380    -4.872681     -4.252836       0.065203       0.000344
   67   0.019331    -4.910587     -4.291519       0.065391       0.000339
   68   0.019280    -4.949074     -4.330919       0.065591       0.000340
   69   0.019315    -4.987661     -4.370558       0.065801       0.000345
   70   0.019366    -5.025705     -4.409779       0.066018       0.000353
   71   0.019420    -5.062491     -4.447820       0.066240       0.000365
   72   0.019435    -5.097455     -4.484064       0.066466       0.000379
   73   0.019447    -5.130442     -4.518346       0.066695       0.000394
   74   0.019402    -5.161568     -4.550816       0.066923       0.000411
   75   0.019357    -5.191066     -4.581767       0.067149       0.000428
   76   0.019324    -5.219112     -4.611432       0.067371       0.000445
   77   0.019296    -5.246033     -4.640203       0.067587       0.000462
   78   0.019261    -5.272255     -4.668590       0.067796       0.000478
   79   0.019222    -5.298374     -4.697302       0.067995       0.000493

---------------------- Local Time Stepping Summary ----------------------
MG level: 0 -> Min. DT: 0.000497563. Max. DT: 3.6287. CFL: 10.
MG level: 1 -> Min. DT: 0.000803736. Max. DT: 5.71115. CFL: 8.35917.
MG level: 2 -> Min. DT: 0.00156057. Max. DT: 8.31073. CFL: 7.39444.
-------------------------------------------------------------------------

----------------------- Residual Evolution Summary ----------------------
log10[Maximum residual]: -4.39849.
Maximum residual point 1429, located at (0.604262, 0.182253).
-------------------------------------------------------------------------

 Iter    Time(s)     Res[Rho]     Res[RhoE]      CL(Total)      CD(Total)
   80   0.019179    -5.325026     -4.727104       0.068184       0.000506
   81   0.019140    -5.352922     -4.758852       0.068361       0.000516
   82   0.019120    -5.382687     -4.793334       0.068525       0.000524
   83   0.019085    -5.414739     -4.831121       0.068676       0.000530
   84   0.019052    -5.448903     -4.872063       0.068812       0.000533
   85   0.019046    -5.483736     -4.914367       0.068933       0.000533
   86   0.019013    -5.515070     -4.952591       0.069037       0.000532
   87   0.018984    -5.535365     -4.976837       0.069126       0.000529
   88   0.018954    -5.539822     -4.981197       0.069205       0.000525
   89   0.018921    -5.534798     -4.974234       0.069274       0.000522
   90   0.018889    -5.529041     -4.966873       0.069332       0.000518
   91   0.018855    -5.526564     -4.963724       0.069379       0.000513
   92   0.018830    -5.527324     -4.964111       0.069415       0.000509
   93   0.018800    -5.530561     -4.966788       0.069442       0.000505
   94   0.018774    -5.537203     -4.973049       0.069460       0.000501
   95   0.018748    -5.548494     -4.984572       0.069469       0.000497
   96   0.018721    -5.564948     -5.002104       0.069469       0.000493
   97   0.018693    -5.585986     -5.025170       0.069461       0.000490
   98   0.018669    -5.609597     -5.051635       0.069444       0.000486
   99   0.018648    -5.632923     -5.078071       0.069422       0.000484
  100   0.018624    -5.653727     -5.101510       0.069395       0.000481
  101   0.018603    -5.671671     -5.121407       0.069364       0.000479
  102   0.018579    -5.688272     -5.139749       0.069329       0.000476
  103   0.018563    -5.705641     -5.159246       0.069291       0.000474
  104   0.018539    -5.725041     -5.181411       0.069250       0.000471
  105   0.018575    -5.746555     -5.206177       0.069205       0.000468
  106   0.018601    -5.769656     -5.232748       0.069157       0.000464
  107   0.018604    -5.793719     -5.260330       0.069104       0.000460
  108   0.018588    -5.817958     -5.287910       0.069049       0.000456
  109   0.018574    -5.841246     -5.313962       0.068990       0.000452
  110   0.018556    -5.862329     -5.336833       0.068930       0.000449
  111   0.018533    -5.880148     -5.355209       0.068868       0.000446
  112   0.018517    -5.893624     -5.367803       0.068806       0.000444
  113   0.018497    -5.900994     -5.372525       0.068744       0.000442
  114   0.018478    -5.900253     -5.367226       0.068682       0.000441
  115   0.018462    -5.893448     -5.355416       0.068617       0.000441
  116   0.018443    -5.889199     -5.348086       0.068552       0.000441
  117   0.018425    -5.885845     -5.342431       0.068486       0.000442
  118   0.018404    -5.892522     -5.349507       0.068416       0.000441
  119   0.018385    -5.917563     -5.380016       0.068353       0.000441

---------------------- Local Time Stepping Summary ----------------------
MG level: 0 -> Min. DT: 0.000497759. Max. DT: 3.6287. CFL: 10.
MG level: 1 -> Min. DT: 0.000801175. Max. DT: 5.71115. CFL: 8.35917.
MG level: 2 -> Min. DT: 0.00155999. Max. DT: 8.31073. CFL: 7.39444.
-------------------------------------------------------------------------

----------------------- Residual Evolution Summary ----------------------
log10[Maximum residual]: -4.79184.
Maximum residual point 405, located at (0.644989, 0.0532451).
-------------------------------------------------------------------------

 Iter    Time(s)     Res[Rho]     Res[RhoE]      CL(Total)      CD(Total)
  120   0.018371    -5.916278     -5.375942       0.068300       0.000443
  121   0.018354    -5.901341     -5.353813       0.068239       0.000442
  122   0.018335    -5.924024     -5.379789       0.068178       0.000441
  123   0.018315    -5.953818     -5.415924       0.068128       0.000441
  124   0.018300    -5.946313     -5.402297       0.068076       0.000441
  125   0.018283    -5.961667     -5.417466       0.068022       0.000440
  126   0.018268    -5.993259     -5.455306       0.067978       0.000441
  127   0.018253    -5.984004     -5.439455       0.067934       0.000441
  128   0.018240    -5.989672     -5.442555       0.067886       0.000441
  129   0.018222    -6.027350     -5.488897       0.067844       0.000442
  130   0.018205    -6.029879     -5.488387       0.067806       0.000442
  131   0.018187    -6.029812     -5.484194       0.067765       0.000442
  132   0.018171    -6.067535     -5.530405       0.067725       0.000443
  133   0.018160    -6.084462     -5.548845       0.067692       0.000444
  134   0.018147    -6.082740     -5.542145       0.067656       0.000444
  135   0.018132    -6.120172     -5.588150       0.067619       0.000445
  136   0.018115    -6.153010     -5.628933       0.067590       0.000446
  137   0.018104    -6.147463     -5.615821       0.067559       0.000446
  138   0.018092    -6.175555     -5.648840       0.067525       0.000446
  139   0.018083    -6.223968     -5.714292       0.067498       0.000447
  140   0.018077    -6.214628     -5.693272       0.067472       0.000448
  141   0.018062    -6.236426     -5.716067       0.067444       0.000448
  142   0.018050    -6.284175     -5.779803       0.067419       0.000449
  143   0.018035    -6.285858     -5.772711       0.067395       0.000449
  144   0.018021    -6.309528     -5.797056       0.067371       0.000449
  145   0.018015    -6.342222     -5.837220       0.067348       0.000449
  146   0.018016    -6.356081     -5.847188       0.067326       0.000450
  147   0.017999    -6.374607     -5.864297       0.067305       0.000450
  148   0.017987    -6.391510     -5.880428       0.067284       0.000450
  149   0.017972    -6.409303     -5.897838       0.067263       0.000450
  150   0.017960    -6.425432     -5.912718       0.067243       0.000450
  151   0.017956    -6.439719     -5.925081       0.067224       0.000450
  152   0.017951    -6.457498     -5.942718       0.067204       0.000450
  153   0.017939    -6.475995     -5.961326       0.067186       0.000450
  154   0.017932    -6.492144     -5.976303       0.067167       0.000450
  155   0.017923    -6.508786     -5.992054       0.067149       0.000449
  156   0.017922    -6.527854     -6.011520       0.067132       0.000449
  157   0.017911    -6.546139     -6.029808       0.067114       0.000449
  158   0.017900    -6.562330     -6.045058       0.067098       0.000449
  159   0.017889    -6.579324     -6.061844       0.067082       0.000449

---------------------- Local Time Stepping Summary ----------------------
MG level: 0 -> Min. DT: 0.000497884. Max. DT: 3.6287. CFL: 10.
MG level: 1 -> Min. DT: 0.000800181. Max. DT: 5.71116. CFL: 8.35917.
MG level: 2 -> Min. DT: 0.00155962. Max. DT: 8.31074. CFL: 7.39444.
-------------------------------------------------------------------------

----------------------- Residual Evolution Summary ----------------------
log10[Maximum residual]: -5.5203.
Maximum residual point 756, located at (0.554328, -0.101975).
-------------------------------------------------------------------------

 Iter    Time(s)     Res[Rho]     Res[RhoE]      CL(Total)      CD(Total)
  160   0.017879    -6.596744     -6.079572       0.067067       0.000449
  161   0.017869    -6.611328     -6.093327       0.067052       0.000449
  162   0.017861    -6.622855     -6.103225       0.067038       0.000448
  163   0.017857    -6.631494     -6.109946       0.067025       0.000448
  164   0.017847    -6.634750     -6.110161       0.067013       0.000448
  165   0.017851    -6.633019     -6.104736       0.067001       0.000448
  166   0.017864    -6.631982     -6.101350       0.066989       0.000448
  167   0.017911    -6.631013     -6.098726       0.066978       0.000448
  168   0.017908    -6.638510     -6.107463       0.066967       0.000449
  169   0.017900    -6.650561     -6.121667       0.066956       0.000449
  170   0.017893    -6.668246     -6.142647       0.066946       0.000449
  171   0.017889    -6.688489     -6.165696       0.066936       0.000449
  172   0.017881    -6.714703     -6.198492       0.066930       0.000450
  173   0.017870    -6.701786     -6.177358       0.066922       0.000450
  174   0.017861    -6.723339     -6.202484       0.066915       0.000450
  175   0.017854    -6.745683     -6.232096       0.066909       0.000450
  176   0.017847    -6.754725     -6.238677       0.066902       0.000449
  177   0.017847    -6.809454     -6.310454       0.066897       0.000449
  178   0.017837    -6.820743     -6.315711       0.066894       0.000450
  179   0.017829    -6.810009     -6.293027       0.066890       0.000450
  180   0.017821    -6.855066     -6.350335       0.066885       0.000450
  181   0.017815    -6.886630     -6.388571       0.066883       0.000450
  182   0.017805    -6.883300     -6.373535       0.066880       0.000450
  183   0.017796    -6.922022     -6.420246       0.066877       0.000451
  184   0.017792    -6.942807     -6.442661       0.066875       0.000451
  185   0.017783    -6.955064     -6.449969       0.066873       0.000451
  186   0.017773    -6.995491     -6.499346       0.066872       0.000451
  187   0.017782    -7.017406     -6.519211       0.066870       0.000451
  188   0.017810    -7.030690     -6.527551       0.066868       0.000452
  189   0.017841    -7.056008     -6.554204       0.066868       0.000452
  190   0.017867    -7.062404     -6.554222       0.066867       0.000452
  191   0.017879    -7.083668     -6.576612       0.066866       0.000452
  192   0.017868    -7.101400     -6.594331       0.066866       0.000452
  193   0.017857    -7.113083     -6.601970       0.066865       0.000452
  194   0.017845    -7.153622     -6.653500       0.066865       0.000452
  195   0.017840    -7.167933     -6.662623       0.066865       0.000452
  196   0.017832    -7.190571     -6.684238       0.066865       0.000452
  197   0.017823    -7.212498     -6.706479       0.066865       0.000452
  198   0.017819    -7.239473     -6.735621       0.066866       0.000452
  199   0.017813    -7.261397     -6.756526       0.066866       0.000452

---------------------- Local Time Stepping Summary ----------------------
MG level: 0 -> Min. DT: 0.000497823. Max. DT: 3.6287. CFL: 10.
MG level: 1 -> Min. DT: 0.000800005. Max. DT: 5.71116. CFL: 8.35917.
MG level: 2 -> Min. DT: 0.0015594. Max. DT: 8.31074. CFL: 7.39444.
-------------------------------------------------------------------------

----------------------- Residual Evolution Summary ----------------------
log10[Maximum residual]: -6.14383.
Maximum residual point 314, located at (0.567822, -0.0671603).
-------------------------------------------------------------------------

 Iter    Time(s)     Res[Rho]     Res[RhoE]      CL(Total)      CD(Total)
  200   0.017806    -7.280922     -6.773856       0.066866       0.000452
  201   0.017801    -7.303671     -6.797611       0.066867       0.000452
  202   0.017796    -7.326252     -6.821052       0.066868       0.000452
  203   0.017796    -7.346362     -6.840457       0.066868       0.000452
  204   0.017794    -7.364110     -6.856895       0.066869       0.000452
  205   0.017784    -7.379398     -6.870440       0.066870       0.000452
  206   0.017778    -7.389587     -6.877279       0.066870       0.000452
  207   0.017770    -7.398324     -6.883271       0.066871       0.000452
  208   0.017761    -7.429604     -6.923693       0.066872       0.000452
  209   0.017755    -7.427515     -6.912137       0.066872       0.000452
  210   0.017744    -7.429278     -6.908482       0.066873       0.000452
  211   0.017740    -7.444117     -6.925592       0.066873       0.000452
  212   0.017733    -7.466442     -6.952964       0.066874       0.000452
  213   0.017724    -7.497936     -6.991523       0.066874       0.000452
  214   0.017715    -7.520014     -7.013188       0.066875       0.000452
  215   0.017712    -7.539833     -7.031951       0.066875       0.000452
  216   0.017707    -7.562206     -7.055508       0.066876       0.000452
  217   0.017702    -7.582916     -7.076570       0.066877       0.000452
  218   0.017694    -7.598775     -7.090473       0.066877       0.000452
  219   0.017690    -7.612522     -7.102254       0.066878       0.000452
  220   0.017683    -7.622777     -7.110008       0.066878       0.000452
  221   0.017674    -7.633839     -7.119743       0.066879       0.000452
  222   0.017668    -7.647233     -7.133133       0.066879       0.000452
  223   0.017661    -7.662854     -7.149460       0.066879       0.000452
  224   0.017655    -7.679219     -7.166376       0.066880       0.000452
  225   0.017671    -7.697112     -7.185068       0.066880       0.000452
  226   0.017688    -7.717778     -7.207327       0.066881       0.000452
  227   0.017699    -7.739709     -7.230713       0.066881       0.000452
  228   0.017692    -7.760801     -7.252241       0.066881       0.000452
  229   0.017685    -7.780713     -7.271921       0.066881       0.000452
  230   0.017680    -7.799873     -7.290754       0.066882       0.000452
  231   0.017677    -7.818544     -7.309107       0.066882       0.000452
  232   0.017671    -7.835624     -7.325326       0.066882       0.000452
  233   0.017667    -7.850527     -7.338756       0.066882       0.000452
  234   0.017671    -7.864652     -7.351609       0.066883       0.000452
  235   0.017666    -7.879589     -7.366015       0.066883       0.000452
  236   0.017659    -7.895968     -7.382508       0.066883       0.000452
  237   0.017653    -7.913969     -7.401050       0.066883       0.000452
  238   0.017649    -7.933641     -7.421557       0.066883       0.000452
  239   0.017645    -7.954917     -7.443866       0.066884       0.000452

---------------------- Local Time Stepping Summary ----------------------
MG level: 0 -> Min. DT: 0.000497811. Max. DT: 3.6287. CFL: 10.
MG level: 1 -> Min. DT: 0.000799998. Max. DT: 5.71116. CFL: 8.35917.
MG level: 2 -> Min. DT: 0.00155937. Max. DT: 8.31074. CFL: 7.39444.
-------------------------------------------------------------------------

----------------------- Residual Evolution Summary ----------------------
log10[Maximum residual]: -6.87289.
Maximum residual point 357, located at (0.520324, 0.0603112).
-------------------------------------------------------------------------

 Iter    Time(s)     Res[Rho]     Res[RhoE]      CL(Total)      CD(Total)
  240   0.017639    -7.977358     -7.467326       0.066884       0.000452
  241   0.017635    -8.000274     -7.491008       0.066884       0.000452
  242   0.017628    -8.023104     -7.514259       0.066884       0.000452
  243   0.017622    -8.045424     -7.536685       0.066884       0.000452
  244   0.017625    -8.066974     -7.558065       0.066884       0.000452
  245   0.017621    -8.087560     -7.578226       0.066885       0.000452
  246   0.017620    -8.107166     -7.597226       0.066885       0.000452
  247   0.017615    -8.126067     -7.615499       0.066885       0.000452
  248   0.017610    -8.144769     -7.633736       0.066885       0.000452
  249   0.017605    -8.163760     -7.652523       0.066885       0.000452
  250   0.017601    -8.183315     -7.672113       0.066885       0.000452

-------------------------- File Output Summary --------------------------
Writing comma-separated values (CSV) surface files.
Merging coordinates in the Master node.
Merging solution in the Master node.
Writing SU2 native restart file.
Writing the forces breakdown file.
-------------------------------------------------------------------------

  251   0.017777    -8.203503     -7.692497       0.066886       0.000452
  252   0.017773    -8.224227     -7.713479       0.066886       0.000452
  253   0.017767    -8.245223     -7.734676       0.066886       0.000452
  254   0.017789    -8.266098     -7.755572       0.066886       0.000452
  255   0.017822    -8.286559     -7.775848       0.066886       0.000452
  256   0.017853    -8.306487     -7.795452       0.066886       0.000452
  257   0.017873    -8.325935     -7.814545       0.066886       0.000452
  258   0.017896    -8.344960     -7.833228       0.066887       0.000452
  259   0.017914    -8.363535     -7.851444       0.066887       0.000452
  260   0.017926    -8.381528     -7.868998       0.066887       0.000452
  261   0.017940    -8.398796     -7.885719       0.066887       0.000452
  262   0.017951    -8.415285     -7.901577       0.066887       0.000452
  263   0.017958    -8.431064     -7.916697       0.066887       0.000452
  264   0.017969    -8.446477     -7.931566       0.066887       0.000452
  265   0.017980    -8.461836     -7.946549       0.066888       0.000452
  266   0.017995    -8.476709     -7.960940       0.066888       0.000452
  267   0.018006    -8.492393     -7.976648       0.066888       0.000452
  268   0.018021    -8.509817     -7.994857       0.066888       0.000452
  269   0.018036    -8.526044     -8.011058       0.066888       0.000452
  270   0.018059    -8.542781     -8.028022       0.066888       0.000452
  271   0.018072    -8.562585     -8.049457       0.066888       0.000452
  272   0.018082    -8.585867     -8.075375       0.066888       0.000452
  273   0.018095    -8.605722     -8.095024       0.066888       0.000452
  274   0.018107    -8.621626     -8.109263       0.066889       0.000452
  275   0.018134    -8.635958     -8.122422       0.066889       0.000452
  276   0.018147    -8.650534     -8.136703       0.066889       0.000452
  277   0.018175    -8.667036     -8.153889       0.066889       0.000452
  278   0.018191    -8.684135     -8.171536       0.066889       0.000452
  279   0.018205    -8.701223     -8.188825       0.066889       0.000452

---------------------- Local Time Stepping Summary ----------------------
MG level: 0 -> Min. DT: 0.000497809. Max. DT: 3.6287. CFL: 10.
MG level: 1 -> Min. DT: 0.000799997. Max. DT: 5.71116. CFL: 8.35917.
MG level: 2 -> Min. DT: 0.00155937. Max. DT: 8.31074. CFL: 7.39444.
-------------------------------------------------------------------------

----------------------- Residual Evolution Summary ----------------------
log10[Maximum residual]: -7.56487.
Maximum residual point 1353, located at (0.353517, 0.156508).
-------------------------------------------------------------------------

 Iter    Time(s)     Res[Rho]     Res[RhoE]      CL(Total)      CD(Total)
  280   0.018215    -8.718243     -8.205903       0.066889       0.000452
  281   0.018233    -8.734362     -8.221659       0.066889       0.000452
  282   0.018237    -8.749840     -8.236639       0.066889       0.000452
  283   0.018242    -8.765936     -8.252713       0.066889       0.000452
  284   0.018253    -8.782938     -8.270050       0.066889       0.000452
  285   0.018262    -8.800630     -8.288124       0.066889       0.000452
  286   0.018264    -8.818889     -8.306737       0.066889       0.000452
  287   0.018260    -8.837618     -8.325809       0.066889       0.000452
  288   0.018252    -8.856860     -8.345432       0.066889       0.000452
  289   0.018246    -8.876668     -8.365684       0.066889       0.000452
  290   0.018238    -8.896944     -8.386402       0.066889       0.000452
  291   0.018229    -8.917486     -8.407296       0.066890       0.000452
  292   0.018233    -8.937965     -8.427929       0.066890       0.000452
  293   0.018250    -8.958014     -8.447860       0.066890       0.000452
  294   0.018267    -8.977427     -8.466906       0.066890       0.000452
  295   0.018283    -8.996165     -8.485104       0.066890       0.000452
  296   0.018293    -9.014250     -8.502530       0.066890       0.000452
  297   0.018285    -9.031748     -8.519291       0.066890       0.000452
  298   0.018279    -9.048790     -8.535575       0.066890       0.000452
  299   0.018275    -9.065557     -8.551624       0.066890       0.000452
  300   0.018268    -9.082112     -8.567496       0.066890       0.000452
  301   0.018261    -9.098659     -8.583454       0.066890       0.000452
  302   0.018257    -9.115492     -8.599888       0.066890       0.000452
  303   0.018251    -9.132619     -8.616745       0.066890       0.000452
  304   0.018245    -9.150118     -8.634107       0.066890       0.000452
  305   0.018240    -9.167780     -8.651706       0.066890       0.000452
  306   0.018232    -9.182805     -8.665674       0.066890       0.000452
  307   0.018224    -9.198475     -8.680761       0.066890       0.000452
  308   0.018222    -9.220870     -8.705587       0.066890       0.000452
  309   0.018223    -9.230561     -8.711755       0.066890       0.000452
  310   0.018216    -9.240024     -8.718814       0.066890       0.000452
  311   0.018211    -9.256570     -8.737721       0.066890       0.000452
  312   0.018204    -9.260215     -8.737411       0.066890       0.000452
  313   0.018197    -9.291715     -8.777086       0.066890       0.000452
  314   0.018194    -9.306278     -8.788665       0.066890       0.000452
  315   0.018188    -9.319321     -8.799549       0.066890       0.000452
  316   0.018180    -9.345037     -8.829922       0.066890       0.000452
  317   0.018175    -9.330485     -8.804068       0.066890       0.000452
  318   0.018168    -9.356549     -8.837836       0.066889       0.000452
  319   0.018162    -9.373290     -8.856934       0.066889       0.000452

---------------------- Local Time Stepping Summary ----------------------
MG level: 0 -> Min. DT: 0.000497809. Max. DT: 3.6287. CFL: 10.
MG level: 1 -> Min. DT: 0.000799997. Max. DT: 5.71116. CFL: 8.35917.
MG level: 2 -> Min. DT: 0.00155937. Max. DT: 8.31074. CFL: 7.39444.
-------------------------------------------------------------------------

----------------------- Residual Evolution Summary ----------------------
log10[Maximum residual]: -8.22048.
Maximum residual point 435, located at (0.33346, 0.0601547).
-------------------------------------------------------------------------

 Iter    Time(s)     Res[Rho]     Res[RhoE]      CL(Total)      CD(Total)
  320   0.018157    -9.350149     -8.820982       0.066889       0.000452
  321   0.018151    -9.382119     -8.863118       0.066889       0.000452
  322   0.018146    -9.412508     -8.900814       0.066889       0.000452
  323   0.018140    -9.387535     -8.860845       0.066889       0.000452
  324   0.018135    -9.415111     -8.894789       0.066889       0.000452
  325   0.018130    -9.455812     -8.947440       0.066889       0.000452
  326   0.018125    -9.432249     -8.908111       0.066889       0.000452
  327   0.018119    -9.442207     -8.917034       0.066889       0.000452
  328   0.018114    -9.493455     -8.986657       0.066889       0.000452
  329   0.018108    -9.484749     -8.965689       0.066889       0.000452
  330   0.018114    -9.470703     -8.941736       0.066889       0.000452
  331   0.018113    -9.522483     -9.012049       0.066889       0.000452
  332   0.018109    -9.549922     -9.041739       0.066889       0.000452
  333   0.018104    -9.516567     -8.990736       0.066889       0.000452
  334   0.018112    -9.552764     -9.036539       0.066889       0.000452
  335   0.018114    -9.590764     -9.085308       0.066889       0.000452
  336   0.018109    -9.565811     -9.044393       0.066889       0.000452
  337   0.018102    -9.593042     -9.075771       0.066889       0.000452
  338   0.018097    -9.633106     -9.126915       0.066889       0.000452

-------------------------- File Output Summary --------------------------
Writing comma-separated values (CSV) surface files.
Merging coordinates in the Master node.
Merging solution in the Master node.
Writing SU2 native restart file.
Writing the forces breakdown file.
-------------------------------------------------------------------------

History file, closed.

------------------------- Solver Postprocessing -------------------------
Deleted CNumerics container.
Deleted CIntegration container.
Deleted CSolver container.
Deleted CIteration container.
Deleted CInterpolator container.
Deleted CTransfer container.
Deleted CGeometry container.
Deleted CFreeFormDefBox class.
Deleted CSurfaceMovement class.
Deleted CVolumetricMovement class.
Deleted CConfig container.
Deleted COutput class.
-------------------------------------------------------------------------

Completed in 6.196625 seconds on 8 cores.

------------------------- Exit Success (SU2_CFD) ------------------------


-------------------------------------------------------------------------
|    ___ _   _ ___                                                      |
|   / __| | | |_  )   Release 5.0.0  "Raven"                            |
|   \__ \ |_| |/ /                                                      |
|   |___/\___//___|   Suite (Solution Exporting Code)                   |
|                                                                       |
-------------------------------------------------------------------------
| SU2 Original Developers: Dr. Francisco D. Palacios.                   |
|                          Dr. Thomas D. Economon.                      |
-------------------------------------------------------------------------
| SU2 Developers:                                                       |
| - Prof. Juan J. Alonso's group at Stanford University.                |
| - Prof. Piero Colonna's group at Delft University of Technology.      |
| - Prof. Nicolas R. Gauger's group at Kaiserslautern U. of Technology. |
| - Prof. Alberto Guardone's group at Polytechnic University of Milan.  |
| - Prof. Rafael Palacios' group at Imperial College London.            |
| - Prof. Edwin van der Weide's group at the University of Twente.      |
| - Prof. Vincent Terrapon's group at the University of Liege.          |
-------------------------------------------------------------------------
| Copyright (C) 2012-2017 SU2, the open-source CFD code.                |
|                                                                       |
| SU2 is free software; you can redistribute it and/or                  |
| modify it under the terms of the GNU Lesser General Public            |
| License as published by the Free Software Foundation; either          |
| version 2.1 of the License, or (at your option) any later version.    |
|                                                                       |
| SU2 is distributed in the hope that it will be useful,                |
| but WITHOUT ANY WARRANTY; without even the implied warranty of        |
| MERCHANTABILITY or FITNESS FOR A PARTICULAR PURPOSE. See the GNU      |
| Lesser General Public License for more details.                       |
|                                                                       |
| You should have received a copy of the GNU Lesser General Public      |
| License along with SU2. If not, see <http://www.gnu.org/licenses/>.   |
-------------------------------------------------------------------------

------------------------ Physical Case Definition -----------------------
Input mesh file name: mesh.su2

-------------------------- Output Information ---------------------------
The output file format is Paraview ASCII (.vtk).
Flow variables file name: flow.

------------------- Config File Boundary Information --------------------
Euler wall boundary marker(s): airfoil.
Far-field boundary marker(s): farfield.

---------------------- Read Grid File Information -----------------------
Two dimensional problem.
5233 points before parallel partitioning.
Performing linear partitioning of the grid nodes.
10216 interior elements before parallel partitioning.
Calling the partitioning functions.
Building the graph adjacency structure.
Distributing elements across all ranks.
2 surface markers.
200 boundary elements in index 0 (Marker = airfoil).
50 boundary elements in index 1 (Marker = farfield).
Calling ParMETIS...
Finished partitioning using ParMETIS (547 edge cuts).
Communicating partition data and creating halo layers.
10763 interior elements including halo cells. 
10763 triangles.
5796 vertices including ghost points. 
Establishing MPI communication patterns.
Identify vertices.

------------------------- Solution Postprocessing -----------------------
Reading and storing the solution from restart_flow.dat.
Merging connectivities in the Master node.
Merging solution in the Master node.
Writing Paraview ASCII file (volume grid).
Writing Paraview ASCII file (surface grid).

Completed in 0.053467 seconds on 8 cores.

------------------------- Exit Success (SU2_SOL) ------------------------

