
-------------------------------------------------------------------------
|    ___ _   _ ___                                                      |
|   / __| | | |_  )   Release 5.0.0  "Raven"                            |
|   \__ \ |_| |/ /                                                      |
|   |___/\___//___|   Suite (Computational Fluid Dynamics Code)         |
|                                                                       |
-------------------------------------------------------------------------
| SU2 Original Developers: Dr. Francisco D. Palacios.                   |
|                          Dr. Thomas D. Economon.                      |
-------------------------------------------------------------------------
| SU2 Developers:                                                       |
| - Prof. Juan J. Alonso's group at Stanford University.                |
| - Prof. Piero Colonna's group at Delft University of Technology.      |
| - Prof. Nicolas R. Gauger's group at Kaiserslautern U. of Technology. |
| - Prof. Alberto Guardone's group at Polytechnic University of Milan.  |
| - Prof. Rafael Palacios' group at Imperial College London.            |
| - Prof. Edwin van der Weide's group at the University of Twente.      |
| - Prof. Vincent Terrapon's group at the University of Liege.          |
-------------------------------------------------------------------------
| Copyright (C) 2012-2017 SU2, the open-source CFD code.                |
|                                                                       |
| SU2 is free software; you can redistribute it and/or                  |
| modify it under the terms of the GNU Lesser General Public            |
| License as published by the Free Software Foundation; either          |
| version 2.1 of the License, or (at your option) any later version.    |
|                                                                       |
| SU2 is distributed in the hope that it will be useful,                |
| but WITHOUT ANY WARRANTY; without even the implied warranty of        |
| MERCHANTABILITY or FITNESS FOR A PARTICULAR PURPOSE. See the GNU      |
| Lesser General Public License for more details.                       |
|                                                                       |
| You should have received a copy of the GNU Lesser General Public      |
| License along with SU2. If not, see <http://www.gnu.org/licenses/>.   |
-------------------------------------------------------------------------

------------------------ Physical Case Definition -----------------------
Compressible Euler equations.
Mach number: 0.8.
Angle of attack (AoA): 1.25 deg, and angle of sideslip (AoS): 0 deg.
Read flow solution from: solution_flow.dat.
Non-Dimensional simulation (P=1.0, Rho=1.0, T=1.0 at the farfield).
The reference length/area (force coefficient) is 1.
The reference length (moment computation) is 1.
Reference origin (moment computation) is (0.25, 0, 0).
Surface(s) where the force coefficients are evaluated: airfoil.
Surface(s) plotted in the output file: airfoil.
Surface(s) affected by the design variables: airfoil.
Input mesh file name: mesh_NACA0012_inv_deform.su2

---------------------- Space Numerical Integration ----------------------
Jameson-Schmidt-Turkel scheme for the flow inviscid terms.
JST viscous coefficients (1st, 2nd & 4th): 0.15, 0.5, 0.02.
The method includes a grid stretching correction (p = 0.3).
Second order integration.
Gradient computation using Green-Gauss theorem.

---------------------- Time Numerical Integration -----------------------
Local time stepping (steady state simulation).
Euler implicit method for the flow equations.
V Multigrid Cycle, with 2 multigrid levels.
Damping factor for the residual restriction: 1.
Damping factor for the correction prolongation: 1.
No CFL adaptation.
Multigrid Level:                       0     1     2
Courant-Friedrichs-Lewy number:       10
MG PreSmooth coefficients:             1     2     3
MG PostSmooth coefficients:            0     0     0
MG CorrecSmooth coefficients:          0     0     0

------------------------- Convergence Criteria --------------------------
Maximum number of iterations: 1000.
Reduce the density residual 6 orders of magnitude.
The minimum bound for the density residual is 10^(-13).
Start convergence criteria at iteration 10.

-------------------------- Output Information ---------------------------
Writing a flow solution every 250 iterations.
Writing the convergence history every 1 iterations.
The output file format is Tecplot ASCII (.dat).
Convergence history file name: history_direct.
Forces breakdown file name: forces_breakdown.dat.
Surface flow coefficients file name: surface_flow.
Flow variables file name: flow.
Restart flow file name: restart_flow.dat.

------------------- Config File Boundary Information --------------------
Euler wall boundary marker(s): airfoil.
Far-field boundary marker(s): farfield.

---------------------- Read Grid File Information -----------------------
Two dimensional problem.
5233 points before parallel partitioning.
Performing linear partitioning of the grid nodes.
10216 interior elements before parallel partitioning.
Calling the partitioning functions.
Building the graph adjacency structure.
Distributing elements across all ranks.
2 surface markers.
200 boundary elements in index 0 (Marker = airfoil).
50 boundary elements in index 1 (Marker = farfield).
Calling ParMETIS...
Finished partitioning using ParMETIS (547 edge cuts).
Communicating partition data and creating halo layers.
10763 interior elements including halo cells. 
10763 triangles.
5796 vertices including ghost points. 
Establishing MPI communication patterns.

------------------------- Geometry Preprocessing ------------------------
Setting point connectivity.
Renumbering points (Reverse Cuthill McKee Ordering).
Recomputing point connectivity.
Setting element connectivity.
Checking the numerical grid orientation.
Identifying edges and vertices.
Computing centers of gravity.
Setting the control volume structure.
Area of the computational grid: 1.3e+03.
Searching for the closest normal neighbors to the surfaces.
Compute the surface curvature.
Max K: 7.84e+03. Mean K: 35.7. Standard deviation K: 494.
Checking for periodicity.
Setting the multigrid structure.
MG level: 0 -> CVs: 5796. Agglomeration rate 1/1.00. CFL 10.
MG level: 1 -> CVs: 1800. Agglomeration rate 1/3.22. CFL 8.36.
MG level: 2 -> CVs: 626. Agglomeration rate 1/2.88. CFL 7.39.
Computing wall distances.
Wetted area = 2.03 m.
Area projection in the x-plane = 0.107 m, y-plane = 1 m.

------------------------- Driver information --------------------------
A Fluid driver has been instantiated.

------------------------ Iteration Preprocessing ------------------------
Zone 1: Euler/Navier-Stokes/RANS flow iteration.

------------------------- Solver Preprocessing --------------------------
Inviscid flow: Computing density based on free-stream
temperature and pressure using the ideal gas law.
Force coefficients computed using free-stream values.
-- Input conditions:
Fluid Model: STANDARD_AIR 
Specific gas constant: 287.058 N.m/kg.K.
Specific gas constant (non-dim): 1
Specific Heat Ratio: 1.4
Free-stream static pressure: 101325 Pa.
Free-stream total pressure: 154454 Pa.
Free-stream temperature: 288.15 K.
Free-stream density: 1.22498 kg/m^3.
Free-stream velocity: (272.173, 5.93883) m/s. Magnitude: 272.238 m/s (529.186 KTS).
Free-stream total energy per unit mass: 243846 m^2/s^2.
-- Reference values:
Reference specific gas constant: 287.058 N.m/kg.K.
Reference pressure: 101325 Pa.
Reference temperature: 288.15 K.
Reference density: 1.22498 kg/m^3.
Reference velocity: 287.603 m/s.
Reference energy per unit mass: 82715.8 m^2/s^2.
-- Resulting non-dimensional state:
Mach number (non-dim): 0.8
Specific gas constant (non-dim): 1
Free-stream temperature (non-dim): 1
Free-stream pressure (non-dim): 1
Free-stream density (non-dim): 1
Free-stream velocity (non-dim): (0.946348, 0.0206494). Magnitude: 0.946573
Free-stream total energy per unit mass (non-dim): 2.948

Initialize Jacobian structure (Euler). MG level: 0.
Initialize Jacobian structure (Euler). MG level: 1.
Initialize Jacobian structure (Euler). MG level: 2.

----------------- Integration and Numerics Preprocessing ----------------
Integration Preprocessing.
Numerics Preprocessing.

------------------------------ Begin Solver -----------------------------

---------------------- Local Time Stepping Summary ----------------------
MG level: 0 -> Min. DT: 0.000497809. Max. DT: 3.6287. CFL: 10.
MG level: 1 -> Min. DT: 0.000799997. Max. DT: 5.71116. CFL: 8.35917.
MG level: 2 -> Min. DT: 0.00155937. Max. DT: 8.31074. CFL: 7.39444.
-------------------------------------------------------------------------

----------------------- Residual Evolution Summary ----------------------
log10[Maximum residual]: -6.7797.
Maximum residual point 105, located at (0.00752, 0.011549).
-------------------------------------------------------------------------

 Iter    Time(s)     Res[Rho]     Res[RhoE]      CL(Total)      CD(Total)
 5165   0.017081    -7.882256     -7.285876       0.066816       0.000445
 5166   0.016797    -7.940016     -7.336736       0.066818       0.000448
 5167   0.016694    -7.942752     -7.342811       0.066819       0.000448
 5168   0.016575    -7.910817     -7.307240       0.066821       0.000449
 5169   0.016683    -7.868399     -7.262985       0.066823       0.000450
 5170   0.016698    -7.835022     -7.231615       0.066825       0.000450
 5171   0.016820    -7.806078     -7.203815       0.066827       0.000450
 5172   0.016861    -7.779157     -7.176041       0.066829       0.000450
 5173   0.017192    -7.761149     -7.157474       0.066831       0.000451
 5174   0.017629    -7.750554     -7.146608       0.066832       0.000451
 5175   0.018209    -7.746221     -7.142150       0.066834       0.000451
 5176   0.018171    -7.746692     -7.142546       0.066835       0.000451
 5177   0.018068    -7.750253     -7.146065       0.066836       0.000451
 5178   0.017944    -7.755521     -7.151365       0.066837       0.000451
 5179   0.017830    -7.761686     -7.157648       0.066838       0.000451
 5180   0.017748    -7.768247     -7.164318       0.066839       0.000451
 5181   0.017706    -7.774694     -7.170671       0.066840       0.000451
 5182   0.017603    -7.780488     -7.175940       0.066841       0.000451
 5183   0.017572    -7.785246     -7.179599       0.066841       0.000451
 5184   0.017514    -7.788939     -7.181640       0.066842       0.000451
 5185   0.017410    -7.791948     -7.182605       0.066842       0.000451
 5186   0.017312    -7.794909     -7.183346       0.066843       0.000451
 5187   0.017256    -7.798583     -7.184825       0.066843       0.000451
 5188   0.017176    -7.803837     -7.188059       0.066844       0.000451
 5189   0.017136    -7.811722     -7.194221       0.066844       0.000451
 5190   0.017211    -7.823605     -7.204792       0.066844       0.000451
 5191   0.017202    -7.841305     -7.221733       0.066845       0.000451
 5192   0.017176    -7.867292     -7.247705       0.066845       0.000451
 5193   0.017122    -7.905139     -7.286581       0.066845       0.000451
 5194   0.017067    -7.959916     -7.343923       0.066846       0.000452
 5195   0.017040    -8.033006     -7.421539       0.066846       0.000452
 5196   0.017119    -8.097357     -7.490345       0.066847       0.000452
 5197   0.017068    -8.130926     -7.526316       0.066847       0.000452
 5198   0.017029    -8.152159     -7.549903       0.066848       0.000452
 5199   0.016983    -8.171192     -7.572117       0.066848       0.000452
 5200   0.016955    -8.186576     -7.590612       0.066849       0.000452
 5201   0.017012    -8.194185     -7.600235       0.066849       0.000452
 5202   0.016980    -8.196887     -7.604294       0.066850       0.000452
 5203   0.017001    -8.198888     -7.607684       0.066850       0.000452
 5204   0.016965    -8.200837     -7.611118       0.066851       0.000452

---------------------- Local Time Stepping Summary ----------------------
MG level: 0 -> Min. DT: 0.000497809. Max. DT: 3.6287. CFL: 10.
MG level: 1 -> Min. DT: 0.000799997. Max. DT: 5.71116. CFL: 8.35917.
MG level: 2 -> Min. DT: 0.00155937. Max. DT: 8.31074. CFL: 7.39444.
-------------------------------------------------------------------------

----------------------- Residual Evolution Summary ----------------------
log10[Maximum residual]: -7.26656.
Maximum residual point 1582, located at (0.53728, 0.217751).
-------------------------------------------------------------------------

 Iter    Time(s)     Res[Rho]     Res[RhoE]      CL(Total)      CD(Total)
 5205   0.016924    -8.201619     -7.613260       0.066851       0.000452
 5206   0.016919    -8.201158     -7.613951       0.066851       0.000452
 5207   0.017036    -8.200070     -7.613804       0.066852       0.000452
 5208   0.017028    -8.198653     -7.613081       0.066852       0.000452
 5209   0.016996    -8.197100     -7.611963       0.066853       0.000452
 5210   0.016973    -8.195810     -7.610893       0.066853       0.000452
 5211   0.016957    -8.195167     -7.610310       0.066853       0.000452
 5212   0.016932    -8.195420     -7.610509       0.066853       0.000452
 5213   0.016905    -8.196800     -7.611768       0.066854       0.000452
 5214   0.016878    -8.199535     -7.614370       0.066854       0.000452
 5215   0.016991    -8.203795     -7.618537       0.066854       0.000452
 5216   0.017168    -8.209714     -7.624453       0.066854       0.000452
 5217   0.017317    -8.217422     -7.632308       0.066854       0.000452
 5218   0.017329    -8.227040     -7.642286       0.066854       0.000452
 5219   0.017318    -8.238655     -7.654535       0.066855       0.000452
 5220   0.017294    -8.252327     -7.669182       0.066855       0.000452
 5221   0.017262    -8.268105     -7.686338       0.066855       0.000452
 5222   0.017218    -8.286037     -7.706119       0.066855       0.000452
 5223   0.017176    -8.306186     -7.728662       0.066855       0.000452
 5224   0.017146    -8.328663     -7.754158       0.066855       0.000452
 5225   0.017131    -8.353635     -7.782865       0.066855       0.000452
 5226   0.017100    -8.381319     -7.815106       0.066856       0.000452
 5227   0.017064    -8.411952     -7.851223       0.066856       0.000452
 5228   0.017053    -8.445715     -7.891471       0.066856       0.000452
 5229   0.017038    -8.482526     -7.935727       0.066856       0.000452
 5230   0.017006    -8.521394     -7.982579       0.066856       0.000452
 5231   0.016973    -8.558635     -8.026847       0.066856       0.000452
 5232   0.016947    -8.584780     -8.055588       0.066856       0.000452
 5233   0.016976    -8.588017     -8.054256       0.066856       0.000452
 5234   0.016998    -8.573223     -8.032001       0.066856       0.000452
 5235   0.016995    -8.556015     -8.009344       0.066856       0.000452
 5236   0.016990    -8.544647     -7.995123       0.066856       0.000452
 5237   0.016971    -8.540137     -7.989179       0.066856       0.000452
 5238   0.016937    -8.539578     -7.987648       0.066856       0.000452
 5239   0.016903    -8.543541     -7.991645       0.066856       0.000452
 5240   0.016883    -8.552739     -8.002231       0.066856       0.000452
 5241   0.016866    -8.563996     -8.015300       0.066856       0.000452
 5242   0.016836    -8.575723     -8.028821       0.066856       0.000452
 5243   0.016825    -8.586659     -8.041222       0.066856       0.000452
 5244   0.016802    -8.595323     -8.050593       0.066856       0.000452

---------------------- Local Time Stepping Summary ----------------------
MG level: 0 -> Min. DT: 0.000497809. Max. DT: 3.6287. CFL: 10.
MG level: 1 -> Min. DT: 0.000799997. Max. DT: 5.71116. CFL: 8.35917.
MG level: 2 -> Min. DT: 0.00155937. Max. DT: 8.31074. CFL: 7.39444.
-------------------------------------------------------------------------

----------------------- Residual Evolution Summary ----------------------
log10[Maximum residual]: -7.44462.
Maximum residual point 1601, located at (0.506504, 0.218592).
-------------------------------------------------------------------------

 Iter    Time(s)     Res[Rho]     Res[RhoE]      CL(Total)      CD(Total)
 5245   0.016778    -8.602414     -8.057942       0.066856       0.000452
 5246   0.016775    -8.608998     -8.064710       0.066856       0.000452
 5247   0.016752    -8.615689     -8.071623       0.066856       0.000452
 5248   0.016736    -8.622733     -8.078909       0.066856       0.000452
 5249   0.016853    -8.630187     -8.086608       0.066856       0.000452
 5250   0.016948    -8.638139     -8.094853       0.066856       0.000452
 5251   0.016952    -8.646731     -8.103860       0.066856       0.000452
 5252   0.016958    -8.656134     -8.113870       0.066856       0.000452
 5253   0.016951    -8.666539     -8.125118       0.066856       0.000452
 5254   0.016928    -8.678162     -8.137865       0.066856       0.000452
 5255   0.016940    -8.691216     -8.152353       0.066856       0.000452
 5256   0.016956    -8.705854     -8.168744       0.066856       0.000452
 5257   0.016941    -8.722134     -8.187067       0.066856       0.000452
 5258   0.016934    -8.740039     -8.207262       0.066856       0.000452
 5259   0.016925    -8.759493     -8.229208       0.066856       0.000452
 5260   0.016911    -8.780341     -8.252691       0.066856       0.000452
 5261   0.016905    -8.802305     -8.277357       0.066856       0.000452
 5262   0.016886    -8.824844     -8.302528       0.066856       0.000452
 5263   0.016878    -8.846866     -8.326817       0.066856       0.000452
 5264   0.016868    -8.866334     -8.347451       0.066856       0.000452
 5265   0.016857    -8.880587     -8.360854       0.066856       0.000452
 5266   0.016868    -8.887727     -8.365376       0.066856       0.000452
 5267   0.016863    -8.887410     -8.361205       0.066856       0.000452
 5268   0.016860    -8.883896     -8.354186       0.066856       0.000452
 5269   0.016860    -8.881134     -8.349192       0.066856       0.000452
 5270   0.016853    -8.880930     -8.347993       0.066856       0.000452
 5271   0.016877    -8.883587     -8.350532       0.066856       0.000452
 5272   0.016890    -8.889520     -8.357164       0.066856       0.000452
 5273   0.016905    -8.898984     -8.368135       0.066856       0.000452
 5274   0.016919    -8.911759     -8.383063       0.066856       0.000452
 5275   0.017006    -8.927314     -8.401180       0.066856       0.000452
 5276   0.017107    -8.945199     -8.421867       0.066856       0.000452
 5277   0.017166    -8.965392     -8.445089       0.066856       0.000452
 5278   0.017231    -8.988169     -8.471176       0.066856       0.000452
 5279   0.017382    -9.013287     -8.499714       0.066856       0.000452
 5280   0.017437    -9.039312     -8.528688       0.066856       0.000452
 5281   0.017439    -9.064245     -8.555453       0.066856       0.000452
 5282   0.017444    -9.086862     -8.578679       0.066856       0.000452
 5283   0.017470    -9.106710     -8.598137       0.066856       0.000452
 5284   0.017504    -9.123818     -8.614133       0.066856       0.000452

---------------------- Local Time Stepping Summary ----------------------
MG level: 0 -> Min. DT: 0.000497809. Max. DT: 3.6287. CFL: 10.
MG level: 1 -> Min. DT: 0.000799997. Max. DT: 5.71116. CFL: 8.35917.
MG level: 2 -> Min. DT: 0.00155937. Max. DT: 8.31074. CFL: 7.39444.
-------------------------------------------------------------------------

----------------------- Residual Evolution Summary ----------------------
log10[Maximum residual]: -7.94248.
Maximum residual point 261, located at (0.583331, 0.0575332).
-------------------------------------------------------------------------

 Iter    Time(s)     Res[Rho]     Res[RhoE]      CL(Total)      CD(Total)
 5285   0.017553    -9.140221     -8.629697       0.066856       0.000452
 5286   0.017558    -9.159284     -8.649500       0.066856       0.000452
 5287   0.017563    -9.180861     -8.672677       0.066856       0.000452
 5288   0.017593    -9.202790     -8.695508       0.066856       0.000452
 5289   0.017618    -9.225283     -8.718590       0.066856       0.000452
 5290   0.017634    -9.247623     -8.741193       0.066856       0.000452
 5291   0.017639    -9.269463     -8.762946       0.066856       0.000452
 5292   0.017637    -9.291147     -8.784519       0.066856       0.000452
 5293   0.017637    -9.313130     -8.806624       0.066856       0.000452
 5294   0.017642    -9.335133     -8.828774       0.066856       0.000452
 5295   0.017657    -9.357227     -8.851084       0.066856       0.000452
 5296   0.017663    -9.380302     -8.874853       0.066856       0.000452
 5297   0.017669    -9.400908     -8.894579       0.066856       0.000452
 5298   0.017663    -9.422150     -8.915702       0.066856       0.000452
 5299   0.017666    -9.445492     -8.940590       0.066856       0.000452
 5300   0.017662    -9.467744     -8.962732       0.066856       0.000452
 5301   0.017663    -9.492535     -8.988552       0.066856       0.000452
 5302   0.017674    -9.511195     -9.005229       0.066856       0.000452
 5303   0.017675    -9.532564     -9.026414       0.066856       0.000452
 5304   0.017683    -9.555497     -9.050062       0.066856       0.000452
 5305   0.017685    -9.573834     -9.067015       0.066856       0.000452
 5306   0.017691    -9.593795     -9.086187       0.066856       0.000452
 5307   0.017686    -9.614668     -9.107356       0.066856       0.000452
 5308   0.017685    -9.635822     -9.128482       0.066856       0.000452
 5309   0.017710    -9.655766     -9.147717       0.066856       0.000452
 5310   0.017714    -9.676376     -9.167873       0.066856       0.000452
 5311   0.017716    -9.698310     -9.190078       0.066856       0.000452
 5312   0.017712    -9.721717     -9.214238       0.066856       0.000452
 5313   0.017699    -9.746041     -9.239300       0.066856       0.000452
 5314   0.017679    -9.771309     -9.265323       0.066856       0.000452
 5315   0.017665    -9.797678     -9.292609       0.066856       0.000452
 5316   0.017649    -9.824994     -9.320941       0.066856       0.000452
 5317   0.017633    -9.852809     -9.349667       0.066856       0.000452
 5318   0.017616    -9.881199     -9.378956       0.066856       0.000452
 5319   0.017602    -9.910508     -9.409351       0.066856       0.000452
 5320   0.017585    -9.940799     -9.440876       0.066856       0.000452
 5321   0.017567    -9.972290     -9.473758       0.066856       0.000452
 5322   0.017554   -10.004848     -9.507729       0.066856       0.000452
 5323   0.017540   -10.038436     -9.542692       0.066856       0.000452
 5324   0.017528   -10.072197     -9.577362       0.066856       0.000452

---------------------- Local Time Stepping Summary ----------------------
MG level: 0 -> Min. DT: 0.000497809. Max. DT: 3.6287. CFL: 10.
MG level: 1 -> Min. DT: 0.000799997. Max. DT: 5.71116. CFL: 8.35917.
MG level: 2 -> Min. DT: 0.00155937. Max. DT: 8.31074. CFL: 7.39444.
-------------------------------------------------------------------------

----------------------- Residual Evolution Summary ----------------------
log10[Maximum residual]: -8.83377.
Maximum residual point 261, located at (0.583331, 0.0575332).
-------------------------------------------------------------------------

 Iter    Time(s)     Res[Rho]     Res[RhoE]      CL(Total)      CD(Total)
 5325   0.017512   -10.104513     -9.609437       0.066856       0.000452
 5326   0.017494   -10.133188     -9.636136       0.066856       0.000452
 5327   0.017515   -10.157344     -9.657051       0.066856       0.000452
 5328   0.017560   -10.179748     -9.676641       0.066856       0.000452
 5329   0.017608   -10.205927     -9.702497       0.066856       0.000452
 5330   0.017647   -10.232770     -9.729366       0.066856       0.000452
 5331   0.017640   -10.241495     -9.730731       0.066856       0.000452
 5332   0.017634   -10.268071     -9.758582       0.066856       0.000452
 5333   0.017617   -10.306113     -9.807255       0.066856       0.000452
 5334   0.017611   -10.341104     -9.843354       0.066856       0.000452
 5335   0.017608   -10.377534     -9.880934       0.066856       0.000452
 5336   0.017595   -10.412271     -9.915360       0.066856       0.000452
 5337   0.017594   -10.440274     -9.940498       0.066856       0.000452
 5338   0.017608   -10.473162     -9.973553       0.066856       0.000452
 5339   0.017628   -10.500269     -9.998689       0.066856       0.000452
 5340   0.017657   -10.529350    -10.027502       0.066856       0.000452
 5341   0.017653   -10.553833    -10.049564       0.066856       0.000452
 5342   0.017637   -10.571336    -10.062329       0.066856       0.000452
 5343   0.017625   -10.585448    -10.071932       0.066856       0.000452
 5344   0.017635   -10.613275    -10.102666       0.066856       0.000452
 5345   0.017637   -10.640947    -10.132715       0.066856       0.000452
 5346   0.017630   -10.665279    -10.156827       0.066856       0.000452
 5347   0.017626   -10.695059    -10.188491       0.066856       0.000452
 5348   0.017615   -10.730088    -10.227406       0.066856       0.000452
 5349   0.017599   -10.757865    -10.254275       0.066856       0.000452
 5350   0.017585   -10.781680    -10.275991       0.066856       0.000452
 5351   0.017573   -10.810297    -10.305945       0.066856       0.000452
 5352   0.017572   -10.833277    -10.327672       0.066856       0.000452
 5353   0.017559   -10.844154    -10.332777       0.066856       0.000452
 5354   0.017548   -10.859700    -10.346666       0.066856       0.000452
 5355   0.017535   -10.880938    -10.369468       0.066856       0.000452
 5356   0.017522   -10.894578    -10.380745       0.066856       0.000452
 5357   0.017509   -10.911430    -10.396867       0.066856       0.000452
 5358   0.017496   -10.935029    -10.422720       0.066856       0.000452
 5359   0.017484   -10.951914    -10.438117       0.066856       0.000452
 5360   0.017473   -10.965464    -10.449220       0.066856       0.000452
 5361   0.017461   -10.988040    -10.473852       0.066856       0.000452
 5362   0.017448   -11.007874    -10.493716       0.066856       0.000452
 5363   0.017436   -11.013041    -10.493146       0.066856       0.000452
 5364   0.017423   -11.022908    -10.501011       0.066856       0.000452

---------------------- Local Time Stepping Summary ----------------------
MG level: 0 -> Min. DT: 0.000497809. Max. DT: 3.6287. CFL: 10.
MG level: 1 -> Min. DT: 0.000799997. Max. DT: 5.71116. CFL: 8.35917.
MG level: 2 -> Min. DT: 0.00155937. Max. DT: 8.31074. CFL: 7.39444.
-------------------------------------------------------------------------

----------------------- Residual Evolution Summary ----------------------
log10[Maximum residual]: -9.84381.
Maximum residual point 436, located at (0.36366, 0.060984).
-------------------------------------------------------------------------

 Iter    Time(s)     Res[Rho]     Res[RhoE]      CL(Total)      CD(Total)
 5365   0.017408   -11.042816    -10.523336       0.066856       0.000452
 5366   0.017394   -11.050582    -10.527722       0.066856       0.000452
 5367   0.017382   -11.045550    -10.515977       0.066856       0.000452
 5368   0.017371   -11.052848    -10.522537       0.066856       0.000452
 5369   0.017379   -11.069960    -10.542436       0.066856       0.000452
 5370   0.017371   -11.077245    -10.547710       0.066856       0.000452
 5371   0.017360   -11.075183    -10.540984       0.066856       0.000452
 5372   0.017347   -11.083475    -10.548969       0.066856       0.000452
 5373   0.017349   -11.101238    -10.569573       0.066856       0.000452
 5374   0.017341   -11.113652    -10.581856       0.066856       0.000452
 5375   0.017328   -11.116407    -10.581313       0.066856       0.000452
 5376   0.017318   -11.125404    -10.589736       0.066856       0.000452
 5377   0.017308   -11.143935    -10.610972       0.066856       0.000452
 5378   0.017295   -11.159668    -10.627591       0.066856       0.000452
 5379   0.017300   -11.165021    -10.630222       0.066856       0.000452
 5380   0.017330   -11.174770    -10.639321       0.066856       0.000452
 5381   0.017379   -11.194312    -10.661737       0.066856       0.000452
 5382   0.017373   -11.210281    -10.678632       0.066856       0.000452
 5383   0.017360   -11.215991    -10.681686       0.066856       0.000452
 5384   0.017349   -11.228437    -10.694325       0.066856       0.000452
 5385   0.017340   -11.250118    -10.719537       0.066856       0.000452
 5386   0.017330   -11.262422    -10.731340       0.066856       0.000452
 5387   0.017333   -11.267533    -10.733720       0.066856       0.000452
 5388   0.017367   -11.286176    -10.754886       0.066856       0.000452
 5389   0.017397   -11.306968    -10.778653       0.066856       0.000452
 5390   0.017415   -11.311194    -10.779542       0.066856       0.000452
 5391   0.017412   -11.321451    -10.789122       0.066856       0.000452
 5392   0.017408   -11.346983    -10.819834       0.066856       0.000452
 5393   0.017396   -11.358544    -10.830509       0.066856       0.000452
 5394   0.017386   -11.358927    -10.826537       0.066856       0.000452
 5395   0.017378   -11.380737    -10.852223       0.066856       0.000452
 5396   0.017369   -11.405280    -10.881170       0.066856       0.000452
 5397   0.017358   -11.403394    -10.873572       0.066856       0.000452
 5398   0.017348   -11.414476    -10.884165       0.066856       0.000452
 5399   0.017340   -11.447416    -10.925317       0.066856       0.000452
 5400   0.017336   -11.450078    -10.923581       0.066856       0.000452
 5401   0.017334   -11.450376    -10.919384       0.066856       0.000452
 5402   0.017324   -11.479778    -10.955690       0.066856       0.000452
 5403   0.017314   -11.499958    -10.978064       0.066856       0.000452
 5404   0.017303   -11.492590    -10.963112       0.066856       0.000452

---------------------- Local Time Stepping Summary ----------------------
MG level: 0 -> Min. DT: 0.000497809. Max. DT: 3.6287. CFL: 10.
MG level: 1 -> Min. DT: 0.000799997. Max. DT: 5.71116. CFL: 8.35917.
MG level: 2 -> Min. DT: 0.00155937. Max. DT: 8.31074. CFL: 7.39444.
-------------------------------------------------------------------------

----------------------- Residual Evolution Summary ----------------------
log10[Maximum residual]: -10.3875.
Maximum residual point 435, located at (0.33346, 0.0601552).
-------------------------------------------------------------------------

 Iter    Time(s)     Res[Rho]     Res[RhoE]      CL(Total)      CD(Total)
 5405   0.017311   -11.509618    -10.981911       0.066856       0.000452
 5406   0.017308   -11.544968    -11.026412       0.066856       0.000452
 5407   0.017311   -11.543072    -11.017951       0.066856       0.000452
 5408   0.017306   -11.539812    -11.009090       0.066856       0.000452
 5409   0.017301   -11.569209    -11.045855       0.066856       0.000452
 5410   0.017297   -11.595810    -11.077273       0.066856       0.000452
 5411   0.017288   -11.583184    -11.055075       0.066856       0.000452
 5412   0.017279   -11.588541    -11.058244       0.066856       0.000452
 5413   0.017279   -11.618031    -11.095594       0.066856       0.000452
 5414   0.017270   -11.630797    -11.108220       0.066856       0.000452
 5415   0.017262   -11.619176    -11.088586       0.066856       0.000452

-------------------------- File Output Summary --------------------------
Writing comma-separated values (CSV) surface files.
Merging coordinates in the Master node.
Merging solution in the Master node.
Writing SU2 native restart file.
Writing the forces breakdown file.
-------------------------------------------------------------------------

 5416   0.017466   -11.627723    -11.096822       0.066856       0.000452
 5417   0.017455   -11.641043    -11.112568       0.066856       0.000452
 5418   0.017448   -11.651508    -11.123354       0.066856       0.000452
 5419   0.017442   -11.648566    -11.116319       0.066856       0.000452
 5420   0.017432   -11.656754    -11.124377       0.066856       0.000452
 5421   0.017424   -11.668968    -11.138176       0.066856       0.000452
 5422   0.017414   -11.684578    -11.155777       0.066856       0.000452
 5423   0.017408   -11.683172    -11.150667       0.066856       0.000452
 5424   0.017399   -11.697723    -11.166748       0.066856       0.000452
 5425   0.017389   -11.716547    -11.188420       0.066856       0.000452
 5426   0.017378   -11.732857    -11.206091       0.066856       0.000452
 5427   0.017382   -11.728952    -11.197263       0.066856       0.000452
 5428   0.017372   -11.761143    -11.236998       0.066856       0.000452
 5429   0.017364   -11.780189    -11.257251       0.066856       0.000452
 5430   0.017360   -11.776374    -11.247453       0.066856       0.000452
 5431   0.017355   -11.794022    -11.266705       0.066856       0.000452
 5432   0.017351   -11.825346    -11.307794       0.066856       0.000452
 5433   0.017346   -11.810672    -11.284420       0.066856       0.000452
 5434   0.017336   -11.860699    -11.347427       0.066856       0.000452
 5435   0.017327   -11.882649    -11.370657       0.066856       0.000452
 5436   0.017318   -11.854281    -11.328638       0.066856       0.000452
 5437   0.017311   -11.912090    -11.403446       0.066856       0.000452
 5438   0.017304   -11.928775    -11.418794       0.066856       0.000452
 5439   0.017296   -11.911237    -11.389029       0.066856       0.000452
 5440   0.017289   -11.955833    -11.445571       0.066856       0.000452
 5441   0.017279   -11.962794    -11.448183       0.066856       0.000452
 5442   0.017272   -11.955612    -11.432334       0.066856       0.000452
 5443   0.017262   -11.997267    -11.485631       0.066856       0.000452
 5444   0.017253   -11.995620    -11.476881       0.066856       0.000452

---------------------- Local Time Stepping Summary ----------------------
MG level: 0 -> Min. DT: 0.000497809. Max. DT: 3.6287. CFL: 10.
MG level: 1 -> Min. DT: 0.000799997. Max. DT: 5.71116. CFL: 8.35917.
MG level: 2 -> Min. DT: 0.00155937. Max. DT: 8.31074. CFL: 7.39444.
-------------------------------------------------------------------------

----------------------- Residual Evolution Summary ----------------------
log10[Maximum residual]: -10.8917.
Maximum residual point 436, located at (0.36366, 0.060984).
-------------------------------------------------------------------------

 Iter    Time(s)     Res[Rho]     Res[RhoE]      CL(Total)      CD(Total)
 5445   0.017245   -12.021390    -11.504952       0.066856       0.000452
 5446   0.017264   -12.045376    -11.532105       0.066856       0.000452
 5447   0.017296   -12.038437    -11.516053       0.066856       0.000452
 5448   0.017322   -12.062331    -11.543634       0.066856       0.000452
 5449   0.017329   -12.086677    -11.573161       0.066856       0.000452
 5450   0.017326   -12.083817    -11.562020       0.066856       0.000452
 5451   0.017318   -12.111798    -11.596322       0.066856       0.000452
 5452   0.017309   -12.116099    -11.595996       0.066856       0.000452
 5453   0.017299   -12.137934    -11.619742       0.066856       0.000452
 5454   0.017290   -12.157968    -11.642288       0.066856       0.000452
 5455   0.017282   -12.137204    -11.608927       0.066856       0.000452
 5456   0.017276   -12.173412    -11.656289       0.066856       0.000452
 5457   0.017265   -12.187320    -11.669550       0.066856       0.000452
 5458   0.017259   -12.178846    -11.652572       0.066856       0.000452
 5459   0.017253   -12.196172    -11.674115       0.066856       0.000452
 5460   0.017248   -12.218574    -11.699946       0.066856       0.000452
 5461   0.017239   -12.233220    -11.712885       0.066856       0.000452
 5462   0.017232   -12.257297    -11.739660       0.066856       0.000452
 5463   0.017226   -12.267578    -11.747383       0.066856       0.000452
 5464   0.017233   -12.267925    -11.742135       0.066856       0.000452
 5465   0.017231   -12.276504    -11.752308       0.066856       0.000452
 5466   0.017238   -12.287462    -11.763958       0.066856       0.000452
 5467   0.017234   -12.323902    -11.808691       0.066856       0.000452
 5468   0.017230   -12.325886    -11.805667       0.066856       0.000452
 5469   0.017224   -12.333988    -11.811035       0.066856       0.000452
 5470   0.017217   -12.359029    -11.841791       0.066856       0.000452
 5471   0.017210   -12.391306    -11.878925       0.066856       0.000452
 5472   0.017205   -12.390903    -11.869930       0.066856       0.000452
 5473   0.017197   -12.414020    -11.896473       0.066856       0.000452
 5474   0.017191   -12.435793    -11.921292       0.066856       0.000452
 5475   0.017184   -12.448394    -11.931266       0.066856       0.000452
 5476   0.017179   -12.459443    -11.940164       0.066856       0.000452
 5477   0.017170   -12.456039    -11.931491       0.066856       0.000452
 5478   0.017162   -12.488981    -11.975838       0.066856       0.000452
 5479   0.017155   -12.485928    -11.964801       0.066856       0.000452
 5480   0.017150   -12.499988    -11.980244       0.066856       0.000452
 5481   0.017148   -12.523892    -12.008947       0.066856       0.000452
 5482   0.017141   -12.552807    -12.041894       0.066856       0.000452
 5483   0.017133   -12.549667    -12.029896       0.066856       0.000452
 5484   0.017128   -12.582501    -12.071627       0.066856       0.000452

---------------------- Local Time Stepping Summary ----------------------
MG level: 0 -> Min. DT: 0.000497809. Max. DT: 3.6287. CFL: 10.
MG level: 1 -> Min. DT: 0.000799997. Max. DT: 5.71116. CFL: 8.35917.
MG level: 2 -> Min. DT: 0.00155937. Max. DT: 8.31074. CFL: 7.39444.
-------------------------------------------------------------------------

----------------------- Residual Evolution Summary ----------------------
log10[Maximum residual]: -11.4506.
Maximum residual point 378, located at (0.394397, 0.0615099).
-------------------------------------------------------------------------

 Iter    Time(s)     Res[Rho]     Res[RhoE]      CL(Total)      CD(Total)
 5485   0.017119   -12.584472    -12.066912       0.066856       0.000452
 5486   0.017114   -12.587524    -12.066711       0.066856       0.000452
 5487   0.017111   -12.613721    -12.100073       0.066856       0.000452
 5488   0.017103   -12.615496    -12.096275       0.066856       0.000452
 5489   0.017101   -12.655880    -12.148802       0.066856       0.000452
 5490   0.017103   -12.625028    -12.100803       0.066856       0.000452
 5491   0.017100   -12.619170    -12.089890       0.066856       0.000452
 5492   0.017093   -12.661975    -12.149221       0.066856       0.000452
 5493   0.017089   -12.684232    -12.172397       0.066856       0.000452
 5494   0.017082   -12.675522    -12.151795       0.066856       0.000452
 5495   0.017076   -12.713335    -12.200883       0.066856       0.000452
 5496   0.017070   -12.721383    -12.207009       0.066856       0.000452
 5497   0.017067   -12.748478    -12.237228       0.066856       0.000452
 5498   0.017063   -12.743585    -12.225278       0.066856       0.000452
 5499   0.017059   -12.741141    -12.217447       0.066856       0.000452
 5500   0.017053   -12.797366    -12.295597       0.066856       0.000452
 5501   0.017047   -12.786983    -12.272776       0.066856       0.000452
 5502   0.017041   -12.806038    -12.291535       0.066856       0.000452
 5503   0.017032   -12.819337    -12.305653       0.066856       0.000452
 5504   0.017027   -12.799748    -12.274286       0.066856       0.000452
 5505   0.017020   -12.842050    -12.330236       0.066856       0.000452
 5506   0.017015   -12.883226    -12.382008       0.066856       0.000452
 5507   0.017012   -12.871780    -12.354958       0.066856       0.000452
 5508   0.017009   -12.907141    -12.396863       0.066856       0.000452
 5509   0.017032   -12.937925    -12.434150       0.066856       0.000452
 5510   0.017060   -12.916553    -12.396267       0.066856       0.000452
 5511   0.017075   -12.952865    -12.441962       0.066856       0.000452
 5512   0.017073   -12.982350    -12.477867       0.066856       0.000452
 5513   0.017070   -12.961173    -12.440480       0.066856       0.000452
 5514   0.017065   -12.954901    -12.426561       0.066856       0.000452
 5515   0.017060   -13.004220    -12.494324       0.066856       0.000452

-------------------------- File Output Summary --------------------------
Writing comma-separated values (CSV) surface files.
Merging coordinates in the Master node.
Merging solution in the Master node.
Writing SU2 native restart file.
Writing the forces breakdown file.
-------------------------------------------------------------------------

History file, closed.

------------------------- Solver Postprocessing -------------------------
Deleted CNumerics container.
Deleted CIntegration container.
Deleted CSolver container.
Deleted CIteration container.
Deleted CInterpolator container.
Deleted CTransfer container.
Deleted CGeometry container.
Deleted CFreeFormDefBox class.
Deleted CSurfaceMovement class.
Deleted CVolumetricMovement class.
Deleted CConfig container.
Deleted COutput class.
-------------------------------------------------------------------------

Completed in 6.042420 seconds on 8 cores.

------------------------- Exit Success (SU2_CFD) ------------------------


-------------------------------------------------------------------------
|    ___ _   _ ___                                                      |
|   / __| | | |_  )   Release 5.0.0  "Raven"                            |
|   \__ \ |_| |/ /                                                      |
|   |___/\___//___|   Suite (Solution Exporting Code)                   |
|                                                                       |
-------------------------------------------------------------------------
| SU2 Original Developers: Dr. Francisco D. Palacios.                   |
|                          Dr. Thomas D. Economon.                      |
-------------------------------------------------------------------------
| SU2 Developers:                                                       |
| - Prof. Juan J. Alonso's group at Stanford University.                |
| - Prof. Piero Colonna's group at Delft University of Technology.      |
| - Prof. Nicolas R. Gauger's group at Kaiserslautern U. of Technology. |
| - Prof. Alberto Guardone's group at Polytechnic University of Milan.  |
| - Prof. Rafael Palacios' group at Imperial College London.            |
| - Prof. Edwin van der Weide's group at the University of Twente.      |
| - Prof. Vincent Terrapon's group at the University of Liege.          |
-------------------------------------------------------------------------
| Copyright (C) 2012-2017 SU2, the open-source CFD code.                |
|                                                                       |
| SU2 is free software; you can redistribute it and/or                  |
| modify it under the terms of the GNU Lesser General Public            |
| License as published by the Free Software Foundation; either          |
| version 2.1 of the License, or (at your option) any later version.    |
|                                                                       |
| SU2 is distributed in the hope that it will be useful,                |
| but WITHOUT ANY WARRANTY; without even the implied warranty of        |
| MERCHANTABILITY or FITNESS FOR A PARTICULAR PURPOSE. See the GNU      |
| Lesser General Public License for more details.                       |
|                                                                       |
| You should have received a copy of the GNU Lesser General Public      |
| License along with SU2. If not, see <http://www.gnu.org/licenses/>.   |
-------------------------------------------------------------------------

------------------------ Physical Case Definition -----------------------
Input mesh file name: mesh_NACA0012_inv_deform.su2

-------------------------- Output Information ---------------------------
The output file format is Tecplot ASCII (.dat).
Flow variables file name: flow.

------------------- Config File Boundary Information --------------------
Euler wall boundary marker(s): airfoil.
Far-field boundary marker(s): farfield.

---------------------- Read Grid File Information -----------------------
Two dimensional problem.
5233 points before parallel partitioning.
Performing linear partitioning of the grid nodes.
10216 interior elements before parallel partitioning.
Calling the partitioning functions.
Building the graph adjacency structure.
Distributing elements across all ranks.
2 surface markers.
200 boundary elements in index 0 (Marker = airfoil).
50 boundary elements in index 1 (Marker = farfield).
Calling ParMETIS...
Finished partitioning using ParMETIS (547 edge cuts).
Communicating partition data and creating halo layers.
10763 interior elements including halo cells. 
10763 triangles.
5796 vertices including ghost points. 
Establishing MPI communication patterns.
Identify vertices.

------------------------- Solution Postprocessing -----------------------
Reading and storing the solution from restart_flow.dat.
Merging connectivities in the Master node.
Merging solution in the Master node.
Writing Tecplot ASCII file (volume grid).
Writing Tecplot ASCII file (surface grid).

Completed in 0.122379 seconds on 8 cores.

------------------------- Exit Success (SU2_SOL) ------------------------

