
-------------------------------------------------------------------------
|    ___ _   _ ___                                                      |
|   / __| | | |_  )   Release 5.0.0  "Raven"                            |
|   \__ \ |_| |/ /                                                      |
|   |___/\___//___|   Suite (Computational Fluid Dynamics Code)         |
|                                                                       |
-------------------------------------------------------------------------
| SU2 Original Developers: Dr. Francisco D. Palacios.                   |
|                          Dr. Thomas D. Economon.                      |
-------------------------------------------------------------------------
| SU2 Developers:                                                       |
| - Prof. Juan J. Alonso's group at Stanford University.                |
| - Prof. Piero Colonna's group at Delft University of Technology.      |
| - Prof. Nicolas R. Gauger's group at Kaiserslautern U. of Technology. |
| - Prof. Alberto Guardone's group at Polytechnic University of Milan.  |
| - Prof. Rafael Palacios' group at Imperial College London.            |
| - Prof. Edwin van der Weide's group at the University of Twente.      |
| - Prof. Vincent Terrapon's group at the University of Liege.          |
-------------------------------------------------------------------------
| Copyright (C) 2012-2017 SU2, the open-source CFD code.                |
|                                                                       |
| SU2 is free software; you can redistribute it and/or                  |
| modify it under the terms of the GNU Lesser General Public            |
| License as published by the Free Software Foundation; either          |
| version 2.1 of the License, or (at your option) any later version.    |
|                                                                       |
| SU2 is distributed in the hope that it will be useful,                |
| but WITHOUT ANY WARRANTY; without even the implied warranty of        |
| MERCHANTABILITY or FITNESS FOR A PARTICULAR PURPOSE. See the GNU      |
| Lesser General Public License for more details.                       |
|                                                                       |
| You should have received a copy of the GNU Lesser General Public      |
| License along with SU2. If not, see <http://www.gnu.org/licenses/>.   |
-------------------------------------------------------------------------

------------------------ Physical Case Definition -----------------------
Compressible Euler equations.
Mach number: 0.8.
Angle of attack (AoA): 1.25 deg, and angle of sideslip (AoS): 0 deg.
Read flow solution from: solution_flow.dat.
Non-Dimensional simulation (P=1.0, Rho=1.0, T=1.0 at the farfield).
The reference length/area (force coefficient) is 1.
The reference length (moment computation) is 1.
Reference origin (moment computation) is (0.25, 0, 0).
Surface(s) where the force coefficients are evaluated: airfoil.
Surface(s) plotted in the output file: airfoil.
Surface(s) affected by the design variables: airfoil.
Input mesh file name: mesh_deform.su2

---------------------- Space Numerical Integration ----------------------
Jameson-Schmidt-Turkel scheme for the flow inviscid terms.
JST viscous coefficients (1st, 2nd & 4th): 0.15, 0.5, 0.02.
The method includes a grid stretching correction (p = 0.3).
Second order integration.
Gradient computation using Green-Gauss theorem.

---------------------- Time Numerical Integration -----------------------
Local time stepping (steady state simulation).
Euler implicit method for the flow equations.
V Multigrid Cycle, with 2 multigrid levels.
Damping factor for the residual restriction: 1.
Damping factor for the correction prolongation: 1.
No CFL adaptation.
Multigrid Level:                       0     1     2
Courant-Friedrichs-Lewy number:       10
MG PreSmooth coefficients:             1     2     3
MG PostSmooth coefficients:            0     0     0
MG CorrecSmooth coefficients:          0     0     0

------------------------- Convergence Criteria --------------------------
Maximum number of iterations: 1000.
Reduce the density residual 6 orders of magnitude.
The minimum bound for the density residual is 10^(-10).
Start convergence criteria at iteration 10.

-------------------------- Output Information ---------------------------
Writing a flow solution every 250 iterations.
Writing the convergence history every 1 iterations.
The output file format is Paraview ASCII (.vtk).
Convergence history file name: history_direct.
Forces breakdown file name: forces_breakdown.dat.
Surface flow coefficients file name: surface_flow.
Flow variables file name: flow.
Restart flow file name: restart_flow.dat.

------------------- Config File Boundary Information --------------------
Euler wall boundary marker(s): airfoil.
Far-field boundary marker(s): farfield.

---------------------- Read Grid File Information -----------------------
Two dimensional problem.
5233 points.
2 surface markers.
200 boundary elements in index 0 (Marker = airfoil).
50 boundary elements in index 1 (Marker = farfield).
10216 triangles.

------------------------- Geometry Preprocessing ------------------------
Setting point connectivity.
Renumbering points (Reverse Cuthill McKee Ordering).
Recomputing point connectivity.
Setting element connectivity.
Checking the numerical grid orientation.
Identifying edges and vertices.
Computing centers of gravity.
Setting the control volume structure.
Area of the computational grid: 1.25e+03.
Searching for the closest normal neighbors to the surfaces.
Compute the surface curvature.
Max K: 7.84e+03. Mean K: 37. Standard deviation K: 495.
Checking for periodicity.
Setting the multigrid structure.
MG level: 0 -> CVs: 5233. Agglomeration rate 1/1.00. CFL 10.
MG level: 1 -> CVs: 1533. Agglomeration rate 1/3.41. CFL 8.12.
MG level: 2 -> CVs: 443. Agglomeration rate 1/3.46. CFL 6.55.
Computing wall distances.
Wetted area = 2.03 m.
Area projection in the x-plane = 0.0916 m, y-plane = 1 m.

------------------------- Driver information --------------------------
A Fluid driver has been instantiated.

------------------------ Iteration Preprocessing ------------------------
Zone 1: Euler/Navier-Stokes/RANS flow iteration.

------------------------- Solver Preprocessing --------------------------
Inviscid flow: Computing density based on free-stream
temperature and pressure using the ideal gas law.
Force coefficients computed using free-stream values.
-- Input conditions:
Fluid Model: STANDARD_AIR 
Specific gas constant: 287.058 N.m/kg.K.
Specific gas constant (non-dim): 1
Specific Heat Ratio: 1.4
Free-stream static pressure: 101325 Pa.
Free-stream total pressure: 154454 Pa.
Free-stream temperature: 288.15 K.
Free-stream density: 1.22498 kg/m^3.
Free-stream velocity: (272.173, 5.93883) m/s. Magnitude: 272.238 m/s (529.186 KTS).
Free-stream total energy per unit mass: 243846 m^2/s^2.
-- Reference values:
Reference specific gas constant: 287.058 N.m/kg.K.
Reference pressure: 101325 Pa.
Reference temperature: 288.15 K.
Reference density: 1.22498 kg/m^3.
Reference velocity: 287.603 m/s.
Reference energy per unit mass: 82715.8 m^2/s^2.
-- Resulting non-dimensional state:
Mach number (non-dim): 0.8
Specific gas constant (non-dim): 1
Free-stream temperature (non-dim): 1
Free-stream pressure (non-dim): 1
Free-stream density (non-dim): 1
Free-stream velocity (non-dim): (0.946348, 0.0206494). Magnitude: 0.946573
Free-stream total energy per unit mass (non-dim): 2.948

Initialize Jacobian structure (Euler). MG level: 0.
Initialize Jacobian structure (Euler). MG level: 1.
Initialize Jacobian structure (Euler). MG level: 2.

----------------- Integration and Numerics Preprocessing ----------------
Integration Preprocessing.
Numerics Preprocessing.

------------------------------ Begin Solver -----------------------------

---------------------- Local Time Stepping Summary ----------------------
MG level: 0 -> Min. DT: 0.000493263. Max. DT: 3.63348. CFL: 10.
MG level: 1 -> Min. DT: 0.000782038. Max. DT: 5.55319. CFL: 8.11871.
MG level: 2 -> Min. DT: 0.00105173. Max. DT: 7.42461. CFL: 6.5465.
-------------------------------------------------------------------------

----------------------- Residual Evolution Summary ----------------------
log10[Maximum residual]: -4.32624.
Maximum residual point 144, located at (0.4175, 0.0464258).
-------------------------------------------------------------------------

 Iter    Time(s)     Res[Rho]     Res[RhoE]      CL(Total)      CD(Total)
  310   0.055985    -5.469395     -4.873016       0.045011       0.000155
  311   0.053333    -5.480061     -4.884350       0.044393       0.000225
  312   0.052770    -5.481293     -4.885338       0.043993       0.000172
  313   0.051954    -5.487717     -4.891805       0.043635       0.000195
  314   0.051161    -5.449512     -4.854309       0.043217       0.000231
  315   0.050691    -5.417518     -4.824051       0.042824       0.000262
  316   0.050332    -5.391721     -4.799378       0.042448       0.000295
  317   0.049987    -5.366653     -4.773838       0.042087       0.000325
  318   0.049793    -5.344872     -4.751017       0.041752       0.000351
  319   0.049708    -5.327802     -4.732987       0.041446       0.000371
  320   0.049695    -5.319881     -4.724781       0.041168       0.000387
  321   0.049544    -5.326636     -4.732694       0.040905       0.000397
  322   0.049404    -5.355480     -4.765757       0.040644       0.000405
  323   0.049245    -5.419321     -4.842313       0.040380       0.000409
  324   0.049151    -5.508684     -4.959647       0.040118       0.000399
  325   0.049085    -5.558733     -5.029549       0.039880       0.000432
  326   0.050007    -5.548248     -5.016164       0.039697       0.000450
  327   0.050166    -5.524112     -4.984191       0.039556       0.000464
  328   0.051040    -5.514590     -4.972300       0.039439       0.000485
  329   0.051085    -5.513360     -4.971670       0.039340       0.000502
  330   0.051502    -5.504412     -4.959848       0.039258       0.000516
  331   0.051424    -5.502746     -4.956111       0.039191       0.000529
  332   0.051268    -5.516254     -4.971453       0.039136       0.000538
  333   0.051149    -5.542623     -5.003801       0.039091       0.000544
  334   0.051071    -5.563340     -5.028700       0.039056       0.000539
  335   0.051016    -5.567255     -5.037658       0.039036       0.000546
  336   0.050908    -5.589159     -5.069722       0.039021       0.000546
  337   0.050790    -5.577020     -5.048575       0.039015       0.000544
  338   0.050669    -5.565773     -5.028202       0.039016       0.000543
  339   0.050603    -5.558577     -5.015182       0.039019       0.000541
  340   0.050562    -5.556893     -5.010451       0.039024       0.000540
  341   0.050505    -5.561305     -5.013832       0.039031       0.000539
  342   0.050439    -5.571369     -5.024339       0.039039       0.000537
  343   0.050390    -5.585371     -5.039596       0.039049       0.000536
  344   0.050366    -5.602851     -5.059112       0.039059       0.000535
  345   0.050336    -5.623613     -5.082814       0.039069       0.000534
  346   0.050261    -5.648129     -5.111497       0.039081       0.000534
  347   0.050251    -5.676860     -5.145975       0.039093       0.000533
  348   0.050202    -5.709648     -5.186243       0.039105       0.000532
  349   0.050181    -5.745204     -5.230594       0.039117       0.000532

---------------------- Local Time Stepping Summary ----------------------
MG level: 0 -> Min. DT: 0.000493169. Max. DT: 3.63348. CFL: 10.
MG level: 1 -> Min. DT: 0.000782174. Max. DT: 5.55324. CFL: 8.11871.
MG level: 2 -> Min. DT: 0.00105165. Max. DT: 7.42465. CFL: 6.5465.
-------------------------------------------------------------------------

----------------------- Residual Evolution Summary ----------------------
log10[Maximum residual]: -4.51292.
Maximum residual point 1206, located at (0.394146, 0.134677).
-------------------------------------------------------------------------

 Iter    Time(s)     Res[Rho]     Res[RhoE]      CL(Total)      CD(Total)
  350   0.050135    -5.780888     -5.275099       0.039127       0.000530
  351   0.050096    -5.810272     -5.309802       0.039133       0.000537
  352   0.050119    -5.813746     -5.305766       0.039142       0.000527
  353   0.050121    -5.791295     -5.267864       0.039146       0.000533
  354   0.050088    -5.798016     -5.274305       0.039150       0.000530
  355   0.050048    -5.824229     -5.309933       0.039153       0.000528
  356   0.050022    -5.855193     -5.349186       0.039152       0.000526
  357   0.049969    -5.878212     -5.372365       0.039149       0.000525
  358   0.049927    -5.895721     -5.388293       0.039146       0.000524
  359   0.049883    -5.908396     -5.398557       0.039142       0.000524
  360   0.049844    -5.920159     -5.408105       0.039137       0.000523
  361   0.049801    -5.934016     -5.421485       0.039132       0.000522
  362   0.049763    -5.957046     -5.449585       0.039126       0.000522
  363   0.049730    -5.985462     -5.485105       0.039119       0.000521
  364   0.049690    -5.996379     -5.491559       0.039113       0.000521
  365   0.049659    -6.010704     -5.503587       0.039106       0.000521
  366   0.049633    -6.026411     -5.519140       0.039099       0.000521
  367   0.049602    -6.041982     -5.534447       0.039093       0.000521
  368   0.049602    -6.058462     -5.550971       0.039087       0.000521
  369   0.049580    -6.072998     -5.564643       0.039080       0.000522
  370   0.049569    -6.085207     -5.575018       0.039074       0.000522
  371   0.049559    -6.096269     -5.584044       0.039068       0.000523
  372   0.049547    -6.107350     -5.593407       0.039062       0.000523
  373   0.049522    -6.119164     -5.603984       0.039057       0.000523
  374   0.049497    -6.132365     -5.616554       0.039052       0.000523
  375   0.049468    -6.146965     -5.630995       0.039048       0.000524
  376   0.049442    -6.162608     -5.646703       0.039044       0.000524
  377   0.049422    -6.178746     -5.662860       0.039041       0.000524
  378   0.049397    -6.194830     -5.678749       0.039039       0.000523
  379   0.049377    -6.210590     -5.694087       0.039038       0.000523
  380   0.049360    -6.225977     -5.708916       0.039038       0.000523
  381   0.049336    -6.240984     -5.723277       0.039039       0.000523
  382   0.049311    -6.255206     -5.736601       0.039040       0.000523
  383   0.049300    -6.268289     -5.748463       0.039042       0.000523
  384   0.049295    -6.280507     -5.759302       0.039045       0.000522
  385   0.049277    -6.292698     -5.770277       0.039049       0.000522
  386   0.049264    -6.305696     -5.782466       0.039053       0.000522
  387   0.049307    -6.320243     -5.796792       0.039057       0.000522
  388   0.049478    -6.336732     -5.813676       0.039062       0.000522
  389   0.049819    -6.355204     -5.833051       0.039067       0.000522

---------------------- Local Time Stepping Summary ----------------------
MG level: 0 -> Min. DT: 0.000493106. Max. DT: 3.63348. CFL: 10.
MG level: 1 -> Min. DT: 0.000782132. Max. DT: 5.55324. CFL: 8.11871.
MG level: 2 -> Min. DT: 0.00105166. Max. DT: 7.42465. CFL: 6.5465.
-------------------------------------------------------------------------

----------------------- Residual Evolution Summary ----------------------
log10[Maximum residual]: -5.17111.
Maximum residual point 1071, located at (0.548448, 0.133076).
-------------------------------------------------------------------------

 Iter    Time(s)     Res[Rho]     Res[RhoE]      CL(Total)      CD(Total)
  390   0.049864    -6.375230     -5.854246       0.039072       0.000522
  391   0.049895    -6.395938     -5.876022       0.039077       0.000522
  392   0.049919    -6.415198     -5.895389       0.039082       0.000522
  393   0.049976    -6.428245     -5.905959       0.039087       0.000522
  394   0.049960    -6.433489     -5.907130       0.039092       0.000522
  395   0.049939    -6.436698     -5.906637       0.039096       0.000523
  396   0.049922    -6.450958     -5.923871       0.039100       0.000522
  397   0.049898    -6.476270     -5.956442       0.039104       0.000522
  398   0.049869    -6.497719     -5.979505       0.039107       0.000522
  399   0.049845    -6.507376     -5.984218       0.039110       0.000522
  400   0.049820    -6.521749     -5.996158       0.039112       0.000522
  401   0.049792    -6.538131     -6.011734       0.039114       0.000522
  402   0.049764    -6.555453     -6.028707       0.039116       0.000522
  403   0.049745    -6.575144     -6.048795       0.039117       0.000522
  404   0.049725    -6.595953     -6.070366       0.039118       0.000522
  405   0.049709    -6.616791     -6.092009       0.039119       0.000522
  406   0.049706    -6.637587     -6.113699       0.039120       0.000522
  407   0.049681    -6.658504     -6.135726       0.039120       0.000521
  408   0.049661    -6.680049     -6.158801       0.039120       0.000521
  409   0.049656    -6.702736     -6.183615       0.039120       0.000521
  410   0.049647    -6.727038     -6.210782       0.039120       0.000521
  411   0.049641    -6.753325     -6.240761       0.039120       0.000521
  412   0.049626    -6.781705     -6.273641       0.039120       0.000521
  413   0.049610    -6.811917     -6.308894       0.039120       0.000521
  414   0.049595    -6.842370     -6.343982       0.039120       0.000521
  415   0.049584    -6.860708     -6.360813       0.039119       0.000521
  416   0.049568    -6.865632     -6.358124       0.039119       0.000521
  417   0.049553    -6.859218     -6.343617       0.039119       0.000521
  418   0.049532    -6.900879     -6.400359       0.039119       0.000521
  419   0.049526    -6.919574     -6.420296       0.039118       0.000521
  420   0.049516    -6.916266     -6.403784       0.039118       0.000521
  421   0.049501    -6.934869     -6.422918       0.039118       0.000521
  422   0.049483    -6.943665     -6.429277       0.039118       0.000521
  423   0.049466    -6.962731     -6.446790       0.039118       0.000521
  424   0.049456    -6.986817     -6.471731       0.039118       0.000522
  425   0.049673    -7.016949     -6.506463       0.039118       0.000521
  426   0.049693    -7.048504     -6.542650       0.039118       0.000521
  427   0.049781    -7.067151     -6.558671       0.039118       0.000521
  428   0.049868    -7.071491     -6.554489       0.039118       0.000522
  429   0.049920    -7.082475     -6.563630       0.039119       0.000522

---------------------- Local Time Stepping Summary ----------------------
MG level: 0 -> Min. DT: 0.000493108. Max. DT: 3.63348. CFL: 10.
MG level: 1 -> Min. DT: 0.000782138. Max. DT: 5.55324. CFL: 8.11871.
MG level: 2 -> Min. DT: 0.00105166. Max. DT: 7.42465. CFL: 6.5465.
-------------------------------------------------------------------------

----------------------- Residual Evolution Summary ----------------------
log10[Maximum residual]: -5.84712.
Maximum residual point 357, located at (0.520365, 0.0587156).
-------------------------------------------------------------------------

 Iter    Time(s)     Res[Rho]     Res[RhoE]      CL(Total)      CD(Total)
  430   0.049928    -7.097706     -6.578713       0.039119       0.000522
  431   0.049931    -7.119835     -6.601328       0.039119       0.000522
  432   0.049987    -7.142005     -6.623667       0.039120       0.000522
  433   0.049991    -7.168980     -6.652998       0.039121       0.000522
  434   0.049975    -7.199376     -6.687100       0.039121       0.000522
  435   0.049971    -7.229880     -6.720737       0.039122       0.000522
  436   0.049961    -7.257293     -6.749111       0.039122       0.000522
  437   0.049949    -7.281814     -6.773124       0.039123       0.000522
  438   0.049933    -7.305531     -6.796434       0.039123       0.000522
  439   0.049914    -7.330331     -6.821445       0.039124       0.000522
  440   0.049899    -7.357299     -6.849515       0.039124       0.000522
  441   0.049881    -7.387540     -6.882313       0.039125       0.000522
  442   0.049868    -7.421335     -6.920154       0.039125       0.000522
  443   0.049853    -7.456175     -6.958950       0.039125       0.000522
  444   0.049848    -7.483022     -6.985301       0.039126       0.000522
  445   0.049838    -7.497088     -6.993005       0.039126       0.000522
  446   0.049835    -7.506709     -6.995666       0.039126       0.000522
  447   0.049822    -7.515141     -6.998683       0.039126       0.000522
  448   0.049811    -7.525500     -7.005676       0.039126       0.000522
  449   0.049800    -7.538945     -7.017338       0.039126       0.000522
  450   0.049799    -7.555494     -7.033150       0.039126       0.000522
  451   0.049799    -7.574836     -7.052510       0.039126       0.000522
  452   0.049794    -7.596810     -7.075224       0.039127       0.000522
  453   0.049787    -7.621366     -7.101317       0.039127       0.000522
  454   0.049779    -7.648370     -7.130671       0.039127       0.000522
  455   0.049765    -7.677464     -7.162852       0.039127       0.000522
  456   0.049752    -7.708150     -7.197185       0.039127       0.000522
  457   0.049744    -7.739670     -7.232567       0.039126       0.000522
  458   0.049733    -7.771022     -7.267520       0.039126       0.000522
  459   0.049718    -7.801211     -7.300603       0.039126       0.000522
  460   0.049711    -7.829421     -7.330757       0.039126       0.000522
  461   0.049704    -7.854885     -7.357145       0.039126       0.000522
  462   0.049690    -7.876667     -7.378404       0.039126       0.000522
  463   0.049678    -7.897075     -7.397993       0.039126       0.000522
  464   0.049672    -7.914486     -7.413514       0.039126       0.000522
  465   0.049660    -7.929068     -7.425204       0.039126       0.000522
  466   0.049654    -7.941028     -7.433827       0.039126       0.000522
  467   0.049653    -7.952504     -7.442621       0.039126       0.000522
  468   0.049640    -7.964774     -7.453209       0.039126       0.000522
  469   0.049630    -7.978064     -7.465508       0.039126       0.000522

---------------------- Local Time Stepping Summary ----------------------
MG level: 0 -> Min. DT: 0.00049311. Max. DT: 3.63348. CFL: 10.
MG level: 1 -> Min. DT: 0.000782138. Max. DT: 5.55324. CFL: 8.11871.
MG level: 2 -> Min. DT: 0.00105166. Max. DT: 7.42465. CFL: 6.5465.
-------------------------------------------------------------------------

----------------------- Residual Evolution Summary ----------------------
log10[Maximum residual]: -6.67837.
Maximum residual point 357, located at (0.520365, 0.0587156).
-------------------------------------------------------------------------

 Iter    Time(s)     Res[Rho]     Res[RhoE]      CL(Total)      CD(Total)
  470   0.049629    -7.991868     -7.478495       0.039126       0.000522
  471   0.049625    -8.005677     -7.491346       0.039126       0.000522
  472   0.049618    -8.019110     -7.503545       0.039126       0.000522
  473   0.049626    -8.031686     -7.514470       0.039126       0.000522
  474   0.049634    -8.043071     -7.523742       0.039126       0.000522
  475   0.049621    -8.053139     -7.531299       0.039126       0.000522
  476   0.049611    -8.061910     -7.537280       0.039126       0.000522
  477   0.049601    -8.069538     -7.541967       0.039126       0.000522
  478   0.049589    -8.076253     -7.545705       0.039126       0.000522
  479   0.049576    -8.082320     -7.548845       0.039126       0.000522
  480   0.049564    -8.088021     -7.551722       0.039126       0.000522
  481   0.049552    -8.093641     -7.554657       0.039126       0.000522
  482   0.049541    -8.099462     -7.557962       0.039126       0.000522
  483   0.049530    -8.105769     -7.561946       0.039126       0.000522
  484   0.049523    -8.112845     -7.566925       0.039126       0.000522
  485   0.049513    -8.120981     -7.573232       0.039126       0.000522
  486   0.049502    -8.130481     -7.581224       0.039127       0.000522
  487   0.049492    -8.141661     -7.591287       0.039127       0.000522
  488   0.049499    -8.154855     -7.603842       0.039127       0.000522
  489   0.049491    -8.170412     -7.619344       0.039127       0.000522
  490   0.049496    -8.188677     -7.638264       0.039127       0.000522
  491   0.049499    -8.209979     -7.661072       0.039127       0.000522
  492   0.049491    -8.234590     -7.688190       0.039127       0.000522
  493   0.049482    -8.262681     -7.719932       0.039127       0.000522
  494   0.049476    -8.294270     -7.756421       0.039128       0.000522
  495   0.049466    -8.329169     -7.797485       0.039128       0.000522
  496   0.049455    -8.366939     -7.842536       0.039128       0.000522
  497   0.049446    -8.406734     -7.890275       0.039128       0.000522
  498   0.049444    -8.446642     -7.937649       0.039128       0.000522
  499   0.049435    -8.482772     -7.978541       0.039128       0.000522
  500   0.049434    -8.511390     -8.007502       0.039128       0.000522
  501   0.049505    -8.531452     -8.024001       0.039128       0.000522
  502   0.049601    -8.545097     -8.032438       0.039128       0.000522
  503   0.049595    -8.557602     -8.040988       0.039128       0.000522
  504   0.049591    -8.571920     -8.053508       0.039129       0.000522
  505   0.049583    -8.587198     -8.068011       0.039129       0.000522
  506   0.049574    -8.601484     -8.081161       0.039129       0.000522
  507   0.049572    -8.613567     -8.091254       0.039129       0.000522
  508   0.049568    -8.624045     -8.099379       0.039129       0.000522
  509   0.049570    -8.634073     -8.107223       0.039129       0.000522

---------------------- Local Time Stepping Summary ----------------------
MG level: 0 -> Min. DT: 0.000493108. Max. DT: 3.63348. CFL: 10.
MG level: 1 -> Min. DT: 0.000782137. Max. DT: 5.55324. CFL: 8.11871.
MG level: 2 -> Min. DT: 0.00105166. Max. DT: 7.42465. CFL: 6.5465.
-------------------------------------------------------------------------

----------------------- Residual Evolution Summary ----------------------
log10[Maximum residual]: -7.40447.
Maximum residual point 362, located at (0.488679, 0.0596928).
-------------------------------------------------------------------------

 Iter    Time(s)     Res[Rho]     Res[RhoE]      CL(Total)      CD(Total)
  510   0.049577    -8.644543     -8.115910       0.039129       0.000522
  511   0.049634    -8.656050     -8.126112       0.039129       0.000522
  512   0.049648    -8.668955     -8.138217       0.039129       0.000522
  513   0.049686    -8.683530     -8.152542       0.039129       0.000522
  514   0.049740    -8.700021     -8.169411       0.039129       0.000522
  515   0.049752    -8.718661     -8.189152       0.039129       0.000522
  516   0.049746    -8.739645     -8.212052       0.039129       0.000522
  517   0.049751    -8.763083     -8.238301       0.039129       0.000522
  518   0.049745    -8.788968     -8.267931       0.039130       0.000522
  519   0.049746    -8.817112     -8.300715       0.039130       0.000522
  520   0.049737    -8.847054     -8.335990       0.039130       0.000522
  521   0.049728    -8.877962     -8.372460       0.039130       0.000522
  522   0.049721    -8.908803     -8.408473       0.039130       0.000522
  523   0.049711    -8.937520     -8.441121       0.039130       0.000522
  524   0.049703    -8.939007     -8.433956       0.039130       0.000522
  525   0.049693    -8.952545     -8.446044       0.039130       0.000522
  526   0.049685    -8.962415     -8.453428       0.039130       0.000522
  527   0.049737    -8.972507     -8.460893       0.039130       0.000522
  528   0.049785    -8.982431     -8.467912       0.039130       0.000522
  529   0.049859    -8.993993     -8.477393       0.039130       0.000522
  530   0.049862    -9.005990     -8.487571       0.039130       0.000522
  531   0.049881    -9.021615     -8.502921       0.039130       0.000522
  532   0.049884    -9.041530     -8.524220       0.039130       0.000522
  533   0.049875    -9.065848     -8.551516       0.039130       0.000522
  534   0.049869    -9.094677     -8.584866       0.039130       0.000522
  535   0.049859    -9.126833     -8.622448       0.039130       0.000522
  536   0.049852    -9.160629     -8.661558       0.039130       0.000522
  537   0.049842    -9.193092     -8.697553       0.039130       0.000522
  538   0.049838    -9.221478     -8.726553       0.039130       0.000522
  539   0.049830    -9.244452     -8.747251       0.039130       0.000522
  540   0.049822    -9.261667     -8.759899       0.039130       0.000522
  541   0.049816    -9.274095     -8.766669       0.039130       0.000522
  542   0.049807    -9.283636     -8.770700       0.039130       0.000522
  543   0.049807    -9.291965     -8.774301       0.039130       0.000522
  544   0.049798    -9.300119     -8.778628       0.039130       0.000522
  545   0.049790    -9.308722     -8.784205       0.039130       0.000522
  546   0.049783    -9.317945     -8.790967       0.039130       0.000522
  547   0.049784    -9.327849     -8.798773       0.039130       0.000522
  548   0.049777    -9.338410     -8.807448       0.039130       0.000522
  549   0.049774    -9.349620     -8.816897       0.039130       0.000522

---------------------- Local Time Stepping Summary ----------------------
MG level: 0 -> Min. DT: 0.000493108. Max. DT: 3.63348. CFL: 10.
MG level: 1 -> Min. DT: 0.000782137. Max. DT: 5.55324. CFL: 8.11871.
MG level: 2 -> Min. DT: 0.00105166. Max. DT: 7.42465. CFL: 6.5465.
-------------------------------------------------------------------------

----------------------- Residual Evolution Summary ----------------------
log10[Maximum residual]: -8.16774.
Maximum residual point 407, located at (0.551974, 0.0573671).
-------------------------------------------------------------------------

 Iter    Time(s)     Res[Rho]     Res[RhoE]      CL(Total)      CD(Total)
  550   0.049769    -9.361500     -8.827114       0.039130       0.000522
  551   0.049762    -9.374136     -8.838205       0.039130       0.000522
  552   0.049761    -9.387678     -8.850381       0.039130       0.000522
  553   0.049762    -9.402349     -8.863947       0.039130       0.000522
  554   0.049768    -9.418434     -8.879298       0.039130       0.000522
  555   0.049760    -9.436277     -8.896900       0.039130       0.000522
  556   0.049751    -9.456252     -8.917266       0.039130       0.000522
  557   0.049744    -9.478742     -8.940925       0.039130       0.000522
  558   0.049738    -9.504092     -8.968365       0.039130       0.000522
  559   0.049730    -9.532556     -8.999962       0.039130       0.000522
  560   0.049724    -9.564231     -9.035877       0.039130       0.000522

-------------------------- File Output Summary --------------------------
Writing comma-separated values (CSV) surface files.
Merging connectivities in the Master node.
Merging coordinates in the Master node.
Merging solution in the Master node.
Writing SU2 native restart file.
Writing Paraview ASCII volume solution file.
Writing Paraview ASCII surface solution file.
Writing the forces breakdown file.
-------------------------------------------------------------------------

  561   0.049958    -9.598964     -9.075900       0.039130       0.000522
  562   0.049951    -9.636237     -9.119245       0.039130       0.000522
  563   0.049943    -9.674995     -9.164261       0.039130       0.000522
  564   0.049941    -9.713427     -9.208113       0.039130       0.000522
  565   0.049932    -9.749047     -9.247054       0.039130       0.000522
  566   0.049926    -9.779708     -9.278217       0.039130       0.000522
  567   0.049917    -9.804458     -9.300915       0.039130       0.000522
  568   0.049911    -9.823915     -9.316898       0.039130       0.000522
  569   0.049907    -9.840911     -9.330764       0.039130       0.000522
  570   0.049901    -9.858361     -9.346554       0.039130       0.000522
  571   0.049900    -9.877429     -9.365362       0.039130       0.000522
  572   0.049894    -9.898087     -9.386548       0.039130       0.000522
  573   0.049886    -9.919667     -9.408821       0.039130       0.000522
  574   0.049882    -9.941757     -9.431579       0.039130       0.000522
  575   0.049881    -9.964614     -9.455352       0.039130       0.000522
  576   0.049877    -9.988725     -9.480986       0.039130       0.000522
  577   0.049871   -10.013700     -9.507939       0.039130       0.000522

-------------------------- File Output Summary --------------------------
Writing comma-separated values (CSV) surface files.
Merging connectivities in the Master node.
Merging coordinates in the Master node.
Merging solution in the Master node.
Writing SU2 native restart file.
Writing Paraview ASCII volume solution file.
Writing Paraview ASCII surface solution file.
Writing the forces breakdown file.
-------------------------------------------------------------------------

History file, closed.

------------------------- Solver Postprocessing -------------------------
Deleted CNumerics container.
Deleted CIntegration container.
Deleted CSolver container.
Deleted CIteration container.
Deleted CInterpolator container.
Deleted CTransfer container.
Deleted CGeometry container.
Deleted CFreeFormDefBox class.
Deleted CSurfaceMovement class.
Deleted CVolumetricMovement class.
Deleted CConfig container.
Deleted COutput class.
-------------------------------------------------------------------------

Completed in 13.445879 seconds on 1 core.

------------------------- Exit Success (SU2_CFD) ------------------------

