
-------------------------------------------------------------------------
|    ___ _   _ ___                                                      |
|   / __| | | |_  )   Release 5.0.0  "Raven"                            |
|   \__ \ |_| |/ /                                                      |
|   |___/\___//___|   Suite (Computational Fluid Dynamics Code)         |
|                                                                       |
-------------------------------------------------------------------------
| SU2 Original Developers: Dr. Francisco D. Palacios.                   |
|                          Dr. Thomas D. Economon.                      |
-------------------------------------------------------------------------
| SU2 Developers:                                                       |
| - Prof. Juan J. Alonso's group at Stanford University.                |
| - Prof. Piero Colonna's group at Delft University of Technology.      |
| - Prof. Nicolas R. Gauger's group at Kaiserslautern U. of Technology. |
| - Prof. Alberto Guardone's group at Polytechnic University of Milan.  |
| - Prof. Rafael Palacios' group at Imperial College London.            |
| - Prof. Edwin van der Weide's group at the University of Twente.      |
| - Prof. Vincent Terrapon's group at the University of Liege.          |
-------------------------------------------------------------------------
| Copyright (C) 2012-2017 SU2, the open-source CFD code.                |
|                                                                       |
| SU2 is free software; you can redistribute it and/or                  |
| modify it under the terms of the GNU Lesser General Public            |
| License as published by the Free Software Foundation; either          |
| version 2.1 of the License, or (at your option) any later version.    |
|                                                                       |
| SU2 is distributed in the hope that it will be useful,                |
| but WITHOUT ANY WARRANTY; without even the implied warranty of        |
| MERCHANTABILITY or FITNESS FOR A PARTICULAR PURPOSE. See the GNU      |
| Lesser General Public License for more details.                       |
|                                                                       |
| You should have received a copy of the GNU Lesser General Public      |
| License along with SU2. If not, see <http://www.gnu.org/licenses/>.   |
-------------------------------------------------------------------------

------------------------ Physical Case Definition -----------------------
Compressible Euler equations.
Mach number: 0.8.
Angle of attack (AoA): 1.25 deg, and angle of sideslip (AoS): 0 deg.
Read flow solution from: solution_flow.dat.
Non-Dimensional simulation (P=1.0, Rho=1.0, T=1.0 at the farfield).
The reference length/area (force coefficient) is 1.
The reference length (moment computation) is 1.
Reference origin (moment computation) is (0.25, 0, 0).
Surface(s) where the force coefficients are evaluated: airfoil.
Surface(s) plotted in the output file: airfoil.
Surface(s) affected by the design variables: airfoil.
Input mesh file name: mesh_deform.su2

---------------------- Space Numerical Integration ----------------------
Jameson-Schmidt-Turkel scheme for the flow inviscid terms.
JST viscous coefficients (1st, 2nd & 4th): 0.15, 0.5, 0.02.
The method includes a grid stretching correction (p = 0.3).
Second order integration.
Gradient computation using Green-Gauss theorem.

---------------------- Time Numerical Integration -----------------------
Local time stepping (steady state simulation).
Euler implicit method for the flow equations.
V Multigrid Cycle, with 2 multigrid levels.
Damping factor for the residual restriction: 1.
Damping factor for the correction prolongation: 1.
No CFL adaptation.
Multigrid Level:                       0     1     2
Courant-Friedrichs-Lewy number:       10
MG PreSmooth coefficients:             1     2     3
MG PostSmooth coefficients:            0     0     0
MG CorrecSmooth coefficients:          0     0     0

------------------------- Convergence Criteria --------------------------
Maximum number of iterations: 1000.
Reduce the density residual 6 orders of magnitude.
The minimum bound for the density residual is 10^(-10).
Start convergence criteria at iteration 10.

-------------------------- Output Information ---------------------------
Writing a flow solution every 250 iterations.
Writing the convergence history every 1 iterations.
The output file format is Paraview ASCII (.vtk).
Convergence history file name: history_direct.
Forces breakdown file name: forces_breakdown.dat.
Surface flow coefficients file name: surface_flow.
Flow variables file name: flow.
Restart flow file name: restart_flow.dat.

------------------- Config File Boundary Information --------------------
Euler wall boundary marker(s): airfoil.
Far-field boundary marker(s): farfield.

---------------------- Read Grid File Information -----------------------
Two dimensional problem.
5233 points.
2 surface markers.
200 boundary elements in index 0 (Marker = airfoil).
50 boundary elements in index 1 (Marker = farfield).
10216 triangles.

------------------------- Geometry Preprocessing ------------------------
Setting point connectivity.
Renumbering points (Reverse Cuthill McKee Ordering).
Recomputing point connectivity.
Setting element connectivity.
Checking the numerical grid orientation.
Identifying edges and vertices.
Computing centers of gravity.
Setting the control volume structure.
Area of the computational grid: 1.25e+03.
Searching for the closest normal neighbors to the surfaces.
Compute the surface curvature.
Max K: 7.84e+03. Mean K: 36.8. Standard deviation K: 495.
Checking for periodicity.
Setting the multigrid structure.
MG level: 0 -> CVs: 5233. Agglomeration rate 1/1.00. CFL 10.
MG level: 1 -> CVs: 1533. Agglomeration rate 1/3.41. CFL 8.12.
MG level: 2 -> CVs: 443. Agglomeration rate 1/3.46. CFL 6.55.
Computing wall distances.
Wetted area = 2.03 m.
Area projection in the x-plane = 0.0905 m, y-plane = 1 m.

------------------------- Driver information --------------------------
A Fluid driver has been instantiated.

------------------------ Iteration Preprocessing ------------------------
Zone 1: Euler/Navier-Stokes/RANS flow iteration.

------------------------- Solver Preprocessing --------------------------
Inviscid flow: Computing density based on free-stream
temperature and pressure using the ideal gas law.
Force coefficients computed using free-stream values.
-- Input conditions:
Fluid Model: STANDARD_AIR 
Specific gas constant: 287.058 N.m/kg.K.
Specific gas constant (non-dim): 1
Specific Heat Ratio: 1.4
Free-stream static pressure: 101325 Pa.
Free-stream total pressure: 154454 Pa.
Free-stream temperature: 288.15 K.
Free-stream density: 1.22498 kg/m^3.
Free-stream velocity: (272.173, 5.93883) m/s. Magnitude: 272.238 m/s (529.186 KTS).
Free-stream total energy per unit mass: 243846 m^2/s^2.
-- Reference values:
Reference specific gas constant: 287.058 N.m/kg.K.
Reference pressure: 101325 Pa.
Reference temperature: 288.15 K.
Reference density: 1.22498 kg/m^3.
Reference velocity: 287.603 m/s.
Reference energy per unit mass: 82715.8 m^2/s^2.
-- Resulting non-dimensional state:
Mach number (non-dim): 0.8
Specific gas constant (non-dim): 1
Free-stream temperature (non-dim): 1
Free-stream pressure (non-dim): 1
Free-stream density (non-dim): 1
Free-stream velocity (non-dim): (0.946348, 0.0206494). Magnitude: 0.946573
Free-stream total energy per unit mass (non-dim): 2.948

Initialize Jacobian structure (Euler). MG level: 0.
Initialize Jacobian structure (Euler). MG level: 1.
Initialize Jacobian structure (Euler). MG level: 2.

----------------- Integration and Numerics Preprocessing ----------------
Integration Preprocessing.
Numerics Preprocessing.

------------------------------ Begin Solver -----------------------------

---------------------- Local Time Stepping Summary ----------------------
MG level: 0 -> Min. DT: 0.000490485. Max. DT: 3.63397. CFL: 10.
MG level: 1 -> Min. DT: 0.000776925. Max. DT: 5.55366. CFL: 8.11871.
MG level: 2 -> Min. DT: 0.001044. Max. DT: 7.42509. CFL: 6.5465.
-------------------------------------------------------------------------

----------------------- Residual Evolution Summary ----------------------
log10[Maximum residual]: -4.90595.
Maximum residual point 117, located at (0.0744, 0.025886).
-------------------------------------------------------------------------

 Iter    Time(s)     Res[Rho]     Res[RhoE]      CL(Total)      CD(Total)
 1948   0.054950    -5.993493     -5.397114       0.032409       0.000455
 1949   0.054415    -6.100953     -5.500426       0.032311       0.000393
 1950   0.052544    -6.108113     -5.512963       0.032229       0.000362
 1951   0.051505    -6.102104     -5.505863       0.032159       0.000352
 1952   0.050758    -6.076022     -5.480011       0.032093       0.000350
 1953   0.050283    -6.047480     -5.451377       0.032035       0.000352
 1954   0.049980    -6.044568     -5.451067       0.031982       0.000352
 1955   0.049713    -6.158610     -5.593044       0.031937       0.000353
 1956   0.049630    -6.151828     -5.585625       0.031889       0.000357
 1957   0.049544    -6.147679     -5.579076       0.031853       0.000360
 1958   0.050494    -6.158825     -5.593087       0.031827       0.000368
 1959   0.051288    -6.176696     -5.616015       0.031810       0.000368
 1960   0.051641    -6.192209     -5.633170       0.031798       0.000372
 1961   0.051707    -6.193640     -5.631074       0.031792       0.000377
 1962   0.051680    -6.183259     -5.614459       0.031792       0.000381
 1963   0.051556    -6.169468     -5.593190       0.031799       0.000386
 1964   0.051535    -6.156320     -5.572792       0.031810       0.000390
 1965   0.051375    -6.149070     -5.559912       0.031823       0.000394
 1966   0.051213    -6.150597     -5.557855       0.031839       0.000397
 1967   0.051087    -6.164781     -5.571043       0.031856       0.000400
 1968   0.050950    -6.197567     -5.606904       0.031874       0.000403
 1969   0.050856    -6.259487     -5.680161       0.031893       0.000406
 1970   0.050745    -6.355189     -5.803099       0.031912       0.000410
 1971   0.050623    -6.427623     -5.899136       0.031933       0.000414
 1972   0.050529    -6.454623     -5.926769       0.031957       0.000417
 1973   0.050430    -6.470013     -5.938088       0.031982       0.000419
 1974   0.050415    -6.477687     -5.942750       0.032007       0.000421
 1975   0.050314    -6.469651     -5.929062       0.032033       0.000422
 1976   0.050246    -6.457066     -5.911106       0.032058       0.000422
 1977   0.050158    -6.445811     -5.895634       0.032082       0.000422
 1978   0.050112    -6.437567     -5.884189       0.032105       0.000422
 1979   0.050550    -6.433752     -5.878223       0.032127       0.000421
 1980   0.050562    -6.438176     -5.882389       0.032148       0.000419
 1981   0.050461    -6.452705     -5.899007       0.032168       0.000418
 1982   0.050381    -6.478431     -5.929729       0.032188       0.000416
 1983   0.050299    -6.515120     -5.975042       0.032206       0.000414
 1984   0.050233    -6.558359     -6.029982       0.032224       0.000413
 1985   0.050168    -6.588368     -6.067185       0.032240       0.000411
 1986   0.050107    -6.596559     -6.075360       0.032254       0.000408
 1987   0.050080    -6.597442     -6.071216       0.032267       0.000407

---------------------- Local Time Stepping Summary ----------------------
MG level: 0 -> Min. DT: 0.000490447. Max. DT: 3.63397. CFL: 10.
MG level: 1 -> Min. DT: 0.000776797. Max. DT: 5.55366. CFL: 8.11871.
MG level: 2 -> Min. DT: 0.0010439. Max. DT: 7.42509. CFL: 6.5465.
-------------------------------------------------------------------------

----------------------- Residual Evolution Summary ----------------------
log10[Maximum residual]: -5.45461.
Maximum residual point 405, located at (0.645017, 0.0515174).
-------------------------------------------------------------------------

 Iter    Time(s)     Res[Rho]     Res[RhoE]      CL(Total)      CD(Total)
 1988   0.050041    -6.587316     -6.053665       0.032277       0.000405
 1989   0.049987    -6.587131     -6.051287       0.032286       0.000404
 1990   0.049966    -6.591982     -6.056093       0.032293       0.000402
 1991   0.049962    -6.607402     -6.074764       0.032300       0.000401
 1992   0.049927    -6.630018     -6.102769       0.032306       0.000401
 1993   0.049887    -6.641002     -6.114273       0.032309       0.000392
 1994   0.049858    -6.642186     -6.113062       0.032308       0.000401
 1995   0.049813    -6.609240     -6.066900       0.032309       0.000395
 1996   0.049773    -6.614000     -6.075356       0.032309       0.000396
 1997   0.049745    -6.667987     -6.152011       0.032308       0.000396
 1998   0.049722    -6.673751     -6.154021       0.032306       0.000396
 1999   0.049705    -6.685611     -6.160501       0.032304       0.000397
 2000   0.049690    -6.683964     -6.152411       0.032302       0.000397
 2001   0.049695    -6.668014     -6.128370       0.032298       0.000397
 2002   0.049657    -6.690088     -6.158369       0.032295       0.000397
 2003   0.049621    -6.688432     -6.153034       0.032291       0.000398
 2004   0.049585    -6.683484     -6.141374       0.032286       0.000398
 2005   0.049600    -6.682884     -6.136720       0.032282       0.000399
 2006   0.049604    -6.686021     -6.138166       0.032278       0.000399
 2007   0.049581    -6.694784     -6.147102       0.032273       0.000400
 2008   0.049563    -6.707692     -6.161175       0.032268       0.000400
 2009   0.049546    -6.724397     -6.179909       0.032263       0.000401
 2010   0.049534    -6.742962     -6.200825       0.032259       0.000401
 2011   0.049502    -6.762535     -6.222849       0.032254       0.000402
 2012   0.049471    -6.782346     -6.245065       0.032249       0.000402
 2013   0.049446    -6.802283     -6.267424       0.032245       0.000403
 2014   0.049418    -6.822471     -6.290157       0.032241       0.000403
 2015   0.049386    -6.843003     -6.313402       0.032237       0.000403
 2016   0.049356    -6.862706     -6.335419       0.032233       0.000403
 2017   0.049332    -6.875058     -6.346964       0.032230       0.000403
 2018   0.049307    -6.875847     -6.344411       0.032227       0.000403
 2019   0.049284    -6.885428     -6.354480       0.032224       0.000404
 2020   0.049261    -6.903594     -6.377530       0.032222       0.000404
 2021   0.049266    -6.915183     -6.388822       0.032221       0.000404
 2022   0.049282    -6.917275     -6.385602       0.032220       0.000404
 2023   0.049263    -6.921736     -6.386158       0.032219       0.000404
 2024   0.049248    -6.927099     -6.388677       0.032218       0.000404
 2025   0.049232    -6.936033     -6.396101       0.032218       0.000405
 2026   0.049228    -6.948922     -6.408524       0.032218       0.000405
 2027   0.049206    -6.965216     -6.425077       0.032218       0.000405

---------------------- Local Time Stepping Summary ----------------------
MG level: 0 -> Min. DT: 0.000490456. Max. DT: 3.63397. CFL: 10.
MG level: 1 -> Min. DT: 0.000776793. Max. DT: 5.55366. CFL: 8.11871.
MG level: 2 -> Min. DT: 0.0010439. Max. DT: 7.42509. CFL: 6.5465.
-------------------------------------------------------------------------

----------------------- Residual Evolution Summary ----------------------
log10[Maximum residual]: -5.73206.
Maximum residual point 616, located at (0.638673, 0.0674391).
-------------------------------------------------------------------------

 Iter    Time(s)     Res[Rho]     Res[RhoE]      CL(Total)      CD(Total)
 2028   0.049193    -6.983765     -6.444311       0.032219       0.000405
 2029   0.049182    -7.003530     -6.465036       0.032220       0.000405
 2030   0.049166    -7.024080     -6.486853       0.032221       0.000405
 2031   0.049146    -7.045509     -6.510032       0.032222       0.000405
 2032   0.049136    -7.068034     -6.534995       0.032223       0.000405
 2033   0.049124    -7.092054     -6.562363       0.032224       0.000405
 2034   0.049123    -7.117799     -6.592487       0.032225       0.000405
 2035   0.049109    -7.145064     -6.625069       0.032227       0.000405
 2036   0.049094    -7.173141     -6.658967       0.032228       0.000405
 2037   0.049080    -7.196772     -6.686443       0.032229       0.000406
 2038   0.049063    -7.213224     -6.702924       0.032231       0.000405
 2039   0.049053    -7.186568     -6.659201       0.032232       0.000405
 2040   0.049041    -7.217452     -6.701709       0.032233       0.000405
 2041   0.049026    -7.227590     -6.711121       0.032234       0.000405
 2042   0.049036    -7.221497     -6.695723       0.032235       0.000405
 2043   0.049032    -7.235811     -6.708855       0.032237       0.000404
 2044   0.049021    -7.241967     -6.712146       0.032238       0.000404
 2045   0.049011    -7.258443     -6.729958       0.032239       0.000404
 2046   0.049013    -7.276332     -6.749246       0.032239       0.000404
 2047   0.049033    -7.292522     -6.765606       0.032240       0.000404
 2048   0.049039    -7.305935     -6.777856       0.032241       0.000404
 2049   0.049026    -7.316082     -6.785747       0.032241       0.000404
 2050   0.049021    -7.324169     -6.791122       0.032242       0.000404
 2051   0.049007    -7.331982     -6.796532       0.032242       0.000404
 2052   0.049009    -7.340809     -6.803690       0.032242       0.000404
 2053   0.048998    -7.351270     -6.813288       0.032243       0.000404
 2054   0.048992    -7.363256     -6.825023       0.032243       0.000404
 2055   0.048982    -7.376146     -6.838002       0.032243       0.000404
 2056   0.048970    -7.389361     -6.851413       0.032243       0.000404
 2057   0.048959    -7.402494     -6.864727       0.032243       0.000404
 2058   0.048948    -7.415391     -6.877785       0.032242       0.000404
 2059   0.048936    -7.428070     -6.890655       0.032242       0.000404
 2060   0.049155    -7.440655     -6.903517       0.032242       0.000404
 2061   0.049409    -7.453321     -6.916609       0.032241       0.000404
 2062   0.049496    -7.466345     -6.930286       0.032241       0.000404
 2063   0.049537    -7.480095     -6.945018       0.032241       0.000404
 2064   0.049542    -7.494974     -6.961308       0.032240       0.000404
 2065   0.049531    -7.511308     -6.979567       0.032240       0.000404
 2066   0.049523    -7.529199     -6.999909       0.032239       0.000404
 2067   0.049513    -7.548094     -7.021558       0.032239       0.000403

---------------------- Local Time Stepping Summary ----------------------
MG level: 0 -> Min. DT: 0.000490461. Max. DT: 3.63397. CFL: 10.
MG level: 1 -> Min. DT: 0.000776794. Max. DT: 5.55366. CFL: 8.11871.
MG level: 2 -> Min. DT: 0.0010439. Max. DT: 7.42509. CFL: 6.5465.
-------------------------------------------------------------------------

----------------------- Residual Evolution Summary ----------------------
log10[Maximum residual]: -6.29406.
Maximum residual point 261, located at (0.583325, 0.0560992).
-------------------------------------------------------------------------

 Iter    Time(s)     Res[Rho]     Res[RhoE]      CL(Total)      CD(Total)
 2068   0.049498    -7.565789     -7.041349       0.032238       0.000403
 2069   0.049486    -7.575918     -7.050466       0.032238       0.000403
 2070   0.049474    -7.576263     -7.048088       0.032237       0.000403
 2071   0.049465    -7.573170     -7.041328       0.032237       0.000403
 2072   0.049454    -7.585316     -7.057586       0.032237       0.000403
 2073   0.049442    -7.607923     -7.087137       0.032236       0.000403
 2074   0.049433    -7.612531     -7.087834       0.032236       0.000403
 2075   0.049419    -7.618055     -7.089509       0.032236       0.000403
 2076   0.049431    -7.629218     -7.099501       0.032235       0.000403
 2077   0.049419    -7.639803     -7.108967       0.032235       0.000403
 2078   0.049413    -7.653033     -7.121918       0.032235       0.000403
 2079   0.049396    -7.667681     -7.136672       0.032235       0.000403
 2080   0.049384    -7.682482     -7.151509       0.032235       0.000403
 2081   0.049372    -7.697414     -7.166446       0.032234       0.000403
 2082   0.049363    -7.712092     -7.181026       0.032234       0.000403
 2083   0.049353    -7.726863     -7.195764       0.032234       0.000403
 2084   0.049348    -7.742391     -7.211595       0.032234       0.000403
 2085   0.049341    -7.759152     -7.229168       0.032234       0.000403
 2086   0.049335    -7.777560     -7.249016       0.032234       0.000403
 2087   0.049346    -7.797744     -7.271283       0.032233       0.000403
 2088   0.049349    -7.819534     -7.295703       0.032233       0.000403
 2089   0.049339    -7.842659     -7.321791       0.032233       0.000403
 2090   0.049328    -7.866491     -7.348628       0.032233       0.000403
 2091   0.049319    -7.890410     -7.375332       0.032233       0.000403
 2092   0.049312    -7.913847     -7.401111       0.032233       0.000403
 2093   0.049300    -7.936345     -7.425363       0.032233       0.000403
 2094   0.049289    -7.957684     -7.447871       0.032232       0.000403
 2095   0.049280    -7.977934     -7.468847       0.032232       0.000403
 2096   0.049275    -7.997370     -7.488777       0.032232       0.000403
 2097   0.049267    -8.016325     -7.508166       0.032232       0.000403
 2098   0.049256    -8.035054     -7.527358       0.032232       0.000403
 2099   0.049245    -8.053654     -7.546455       0.032232       0.000403
 2100   0.049233    -8.072076     -7.565338       0.032232       0.000403
 2101   0.049225    -8.090107     -7.583671       0.032232       0.000403
 2102   0.049218    -8.107056     -7.600425       0.032231       0.000403
 2103   0.049215    -8.116139     -7.605700       0.032231       0.000403
 2104   0.049207    -8.135769     -7.628781       0.032231       0.000403
 2105   0.049207    -8.141184     -7.629444       0.032231       0.000403
 2106   0.049204    -8.141520     -7.623723       0.032231       0.000403
 2107   0.049196    -8.138976     -7.621126       0.032231       0.000403

---------------------- Local Time Stepping Summary ----------------------
MG level: 0 -> Min. DT: 0.000490459. Max. DT: 3.63397. CFL: 10.
MG level: 1 -> Min. DT: 0.000776793. Max. DT: 5.55366. CFL: 8.11871.
MG level: 2 -> Min. DT: 0.0010439. Max. DT: 7.42509. CFL: 6.5465.
-------------------------------------------------------------------------

----------------------- Residual Evolution Summary ----------------------
log10[Maximum residual]: -6.84085.
Maximum residual point 261, located at (0.583325, 0.0560992).
-------------------------------------------------------------------------

 Iter    Time(s)     Res[Rho]     Res[RhoE]      CL(Total)      CD(Total)
 2108   0.049193    -8.175392     -7.669165       0.032231       0.000403
 2109   0.049186    -8.188267     -7.680226       0.032231       0.000403
 2110   0.049178    -8.200710     -7.688569       0.032231       0.000403
 2111   0.049169    -8.212485     -7.697152       0.032231       0.000403
 2112   0.049160    -8.229691     -7.714940       0.032231       0.000403
 2113   0.049151    -8.245503     -7.730856       0.032231       0.000403
 2114   0.049142    -8.262871     -7.749157       0.032231       0.000403
 2115   0.049134    -8.282863     -7.771249       0.032231       0.000403
 2116   0.049129    -8.304590     -7.795709       0.032231       0.000403
 2117   0.049121    -8.328313     -7.822926       0.032231       0.000403
 2118   0.049116    -8.348216     -7.843794       0.032230       0.000404
 2119   0.049112    -8.363694     -7.857902       0.032230       0.000404
 2120   0.049105    -8.379972     -7.874918       0.032230       0.000404
 2121   0.049104    -8.389531     -7.882260       0.032230       0.000404
 2122   0.049099    -8.395544     -7.884750       0.032230       0.000404
 2123   0.049092    -8.403142     -7.890493       0.032230       0.000404
 2124   0.049087    -8.409325     -7.894529       0.032230       0.000404
 2125   0.049079    -8.413764     -7.896217       0.032230       0.000404
 2126   0.049081    -8.417123     -7.896757       0.032230       0.000404
 2127   0.049076    -8.419826     -7.896758       0.032230       0.000404
 2128   0.049110    -8.422255     -7.896656       0.032230       0.000404
 2129   0.049123    -8.424957     -7.897121       0.032231       0.000404
 2130   0.049118    -8.428387     -7.898698       0.032231       0.000404
 2131   0.049113    -8.432871     -7.901745       0.032231       0.000404
 2132   0.049106    -8.438648     -7.906513       0.032231       0.000404
 2133   0.049100    -8.445881     -7.913166       0.032231       0.000404
 2134   0.049091    -8.454658     -7.921781       0.032231       0.000404
 2135   0.049083    -8.464994     -7.932355       0.032231       0.000404
 2136   0.049079    -8.476835     -7.944804       0.032231       0.000404
 2137   0.049077    -8.490051     -7.958949       0.032231       0.000404
 2138   0.049074    -8.504433     -7.974509       0.032231       0.000404
 2139   0.049064    -8.519704     -7.991113       0.032231       0.000404
 2140   0.049061    -8.535546     -8.008337       0.032231       0.000404
 2141   0.049052    -8.551633     -8.025747       0.032231       0.000404
 2142   0.049045    -8.567670     -8.042955       0.032231       0.000404
 2143   0.049041    -8.583425     -8.059668       0.032231       0.000404
 2144   0.049049    -8.598751     -8.075713       0.032231       0.000404
 2145   0.049043    -8.613596     -8.091046       0.032231       0.000404
 2146   0.049037    -8.627998     -8.105749       0.032232       0.000404
 2147   0.049036    -8.642071     -8.119998       0.032232       0.000404

---------------------- Local Time Stepping Summary ----------------------
MG level: 0 -> Min. DT: 0.000490459. Max. DT: 3.63397. CFL: 10.
MG level: 1 -> Min. DT: 0.000776793. Max. DT: 5.55366. CFL: 8.11871.
MG level: 2 -> Min. DT: 0.0010439. Max. DT: 7.42509. CFL: 6.5465.
-------------------------------------------------------------------------

----------------------- Residual Evolution Summary ----------------------
log10[Maximum residual]: -7.41979.
Maximum residual point 617, located at (0.560651, 0.0730785).
-------------------------------------------------------------------------

 Iter    Time(s)     Res[Rho]     Res[RhoE]      CL(Total)      CD(Total)
 2148   0.049041    -8.655984     -8.134036       0.032232       0.000404
 2149   0.049040    -8.669941     -8.148143       0.032232       0.000404
 2150   0.049039    -8.684156     -8.162602       0.032232       0.000404
 2151   0.049036    -8.698839     -8.177684       0.032232       0.000404
 2152   0.049032    -8.714185     -8.193635       0.032232       0.000404
 2153   0.049025    -8.730368     -8.210674       0.032232       0.000404
 2154   0.049019    -8.747539     -8.228988       0.032232       0.000404
 2155   0.049013    -8.765815     -8.248723       0.032232       0.000404
 2156   0.049009    -8.785266     -8.269967       0.032232       0.000404
 2157   0.049014    -8.805885     -8.292698       0.032232       0.000404
 2158   0.049009    -8.827516     -8.316694       0.032232       0.000404
 2159   0.049005    -8.849736     -8.341353       0.032232       0.000404
 2160   0.048998    -8.871586     -8.365299       0.032232       0.000404
 2161   0.048994    -8.890542     -8.384914       0.032232       0.000404
 2162   0.049025    -8.903214     -8.395845       0.032232       0.000404
 2163   0.049064    -8.916122     -8.407685       0.032233       0.000404
 2164   0.049131    -8.928318     -8.418732       0.032233       0.000404
 2165   0.049134    -8.938347     -8.426686       0.032233       0.000404
 2166   0.049137    -8.945878     -8.431401       0.032233       0.000404
 2167   0.049141    -8.953549     -8.436890       0.032233       0.000404
 2168   0.049139    -8.961358     -8.442894       0.032233       0.000404
 2169   0.049141    -8.969736     -8.449833       0.032233       0.000404
 2170   0.049136    -8.978473     -8.457311       0.032233       0.000404
 2171   0.049132    -8.987185     -8.464766       0.032233       0.000404
 2172   0.049129    -8.995509     -8.471718       0.032233       0.000404
 2173   0.049126    -9.003407     -8.478168       0.032233       0.000404
 2174   0.049121    -9.011078     -8.484426       0.032233       0.000404
 2175   0.049117    -9.018821     -8.490905       0.032233       0.000404
 2176   0.049114    -9.026923     -8.497976       0.032233       0.000404
 2177   0.049109    -9.035546     -8.505824       0.032233       0.000404
 2178   0.049104    -9.044710     -8.514443       0.032233       0.000404
 2179   0.049122    -9.054334     -8.523696       0.032233       0.000404
 2180   0.049117    -9.064292     -8.533398       0.032233       0.000404
 2181   0.049112    -9.074461     -8.543378       0.032233       0.000404
 2182   0.049108    -9.084740     -8.553496       0.032233       0.000404
 2183   0.049107    -9.095042     -8.563639       0.032233       0.000404
 2184   0.049103    -9.105290     -8.573706       0.032233       0.000404
 2185   0.049107    -9.115417     -8.583611       0.032233       0.000404
 2186   0.049100    -9.125379     -8.593300       0.032233       0.000404
 2187   0.049095    -9.135169     -8.602767       0.032233       0.000404

---------------------- Local Time Stepping Summary ----------------------
MG level: 0 -> Min. DT: 0.000490459. Max. DT: 3.63397. CFL: 10.
MG level: 1 -> Min. DT: 0.000776793. Max. DT: 5.55366. CFL: 8.11871.
MG level: 2 -> Min. DT: 0.0010439. Max. DT: 7.42509. CFL: 6.5465.
-------------------------------------------------------------------------

----------------------- Residual Evolution Summary ----------------------
log10[Maximum residual]: -7.82111.
Maximum residual point 407, located at (0.551906, 0.0576796).
-------------------------------------------------------------------------

 Iter    Time(s)     Res[Rho]     Res[RhoE]      CL(Total)      CD(Total)
 2188   0.049094    -9.144821     -8.612068       0.032233       0.000404
 2189   0.049089    -9.154414     -8.621311       0.032233       0.000404
 2190   0.049084    -9.164046     -8.630618       0.032233       0.000404
 2191   0.049080    -9.173840     -8.640156       0.032233       0.000404
 2192   0.049077    -9.183847     -8.649983       0.032233       0.000404
 2193   0.049073    -9.194101     -8.660133       0.032233       0.000404
 2194   0.049069    -9.204649     -8.670661       0.032233       0.000404
 2195   0.049062    -9.215545     -8.681636       0.032233       0.000404
 2196   0.049056    -9.226854     -8.693140       0.032233       0.000404
 2197   0.049053    -9.238595     -8.705188       0.032233       0.000404
 2198   0.049048    -9.250751     -8.717751       0.032233       0.000404

-------------------------- File Output Summary --------------------------
Writing comma-separated values (CSV) surface files.
Merging connectivities in the Master node.
Merging coordinates in the Master node.
Merging solution in the Master node.
Writing SU2 native restart file.
Writing Paraview ASCII volume solution file.
Writing Paraview ASCII surface solution file.
Writing the forces breakdown file.
-------------------------------------------------------------------------

 2199   0.049410    -9.263279     -8.730765       0.032233       0.000404
 2200   0.049404    -9.276123     -8.744147       0.032233       0.000404
 2201   0.049396    -9.289216     -8.757811       0.032233       0.000404
 2202   0.049389    -9.302500     -8.771677       0.032233       0.000404
 2203   0.049387    -9.315921     -8.785673       0.032233       0.000404
 2204   0.049382    -9.329435     -8.799744       0.032233       0.000404
 2205   0.049375    -9.343009     -8.813847       0.032233       0.000404
 2206   0.049366    -9.356623     -8.827957       0.032233       0.000404
 2207   0.049388    -9.370274     -8.842073       0.032233       0.000404
 2208   0.049391    -9.383978     -8.856217       0.032233       0.000404
 2209   0.049401    -9.397764     -8.870432       0.032233       0.000404
 2210   0.049395    -9.411677     -8.884776       0.032233       0.000404
 2211   0.049389    -9.425772     -8.899323       0.032233       0.000404
 2212   0.049383    -9.440109     -8.914150       0.032233       0.000404
 2213   0.049377    -9.454756     -8.929344       0.032233       0.000404
 2214   0.049375    -9.469781     -8.944990       0.032233       0.000404
 2215   0.049369    -9.485255     -8.961182       0.032233       0.000404
 2216   0.049363    -9.501253     -8.978010       0.032233       0.000404
 2217   0.049357    -9.517848     -8.995568       0.032233       0.000404
 2218   0.049352    -9.535112     -9.013950       0.032233       0.000404
 2219   0.049348    -9.553116     -9.033242       0.032233       0.000404
 2220   0.049343    -9.571921     -9.053525       0.032233       0.000404
 2221   0.049341    -9.591581     -9.074862       0.032233       0.000404
 2222   0.049339    -9.612122     -9.097287       0.032233       0.000404
 2223   0.049339    -9.633539     -9.120781       0.032233       0.000404
 2224   0.049342    -9.655756     -9.145233       0.032233       0.000404
 2225   0.049338    -9.678580     -9.170364       0.032233       0.000404
 2226   0.049333    -9.701594     -9.195570       0.032233       0.000404
 2227   0.049329    -9.723838     -9.219472       0.032232       0.000404

---------------------- Local Time Stepping Summary ----------------------
MG level: 0 -> Min. DT: 0.000490459. Max. DT: 3.63397. CFL: 10.
MG level: 1 -> Min. DT: 0.000776793. Max. DT: 5.55366. CFL: 8.11871.
MG level: 2 -> Min. DT: 0.0010439. Max. DT: 7.42509. CFL: 6.5465.
-------------------------------------------------------------------------

----------------------- Residual Evolution Summary ----------------------
log10[Maximum residual]: -8.41384.
Maximum residual point 617, located at (0.560651, 0.0730785).
-------------------------------------------------------------------------

 Iter    Time(s)     Res[Rho]     Res[RhoE]      CL(Total)      CD(Total)
 2228   0.049330    -9.742230     -9.237669       0.032232       0.000404
 2229   0.049326    -9.753287     -9.246036       0.032232       0.000404
 2230   0.049325    -9.767403     -9.259724       0.032232       0.000404
 2231   0.049320    -9.782243     -9.274486       0.032232       0.000404
 2232   0.049314    -9.795499     -9.286397       0.032232       0.000404
 2233   0.049310    -9.804911     -9.292827       0.032232       0.000404
 2234   0.049309    -9.814123     -9.299670       0.032232       0.000404
 2235   0.049303    -9.822851     -9.306282       0.032232       0.000404
 2236   0.049297    -9.832163     -9.313975       0.032232       0.000404
 2237   0.049295    -9.842149     -9.322708       0.032232       0.000404
 2238   0.049291    -9.852563     -9.332048       0.032232       0.000404
 2239   0.049287    -9.862713     -9.340998       0.032232       0.000404
 2240   0.049283    -9.872184     -9.349038       0.032232       0.000404
 2241   0.049279    -9.880817     -9.356032       0.032232       0.000404
 2242   0.049272    -9.888819     -9.362324       0.032232       0.000404
 2243   0.049270    -9.896652     -9.368569       0.032232       0.000404
 2244   0.049272    -9.904747     -9.375331       0.032232       0.000404
 2245   0.049273    -9.913346     -9.382890       0.032232       0.000404
 2246   0.049270    -9.922476     -9.391238       0.032232       0.000404
 2247   0.049292    -9.932014     -9.400173       0.032232       0.000404
 2248   0.049322    -9.941781     -9.409435       0.032232       0.000404
 2249   0.049370    -9.951622     -9.418812       0.032232       0.000404
 2250   0.049392    -9.961437     -9.428172       0.032232       0.000404
 2251   0.049413    -9.971167     -9.437441       0.032232       0.000404
 2252   0.049465    -9.980782     -9.446582       0.032232       0.000404
 2253   0.049470    -9.990259     -9.455569       0.032232       0.000404
 2254   0.049500    -9.999596     -9.464403       0.032232       0.000404
 2255   0.049499   -10.008819     -9.473119       0.032232       0.000404

-------------------------- File Output Summary --------------------------
Writing comma-separated values (CSV) surface files.
Merging connectivities in the Master node.
Merging coordinates in the Master node.
Merging solution in the Master node.
Writing SU2 native restart file.
Writing Paraview ASCII volume solution file.
Writing Paraview ASCII surface solution file.
Writing the forces breakdown file.
-------------------------------------------------------------------------

History file, closed.

------------------------- Solver Postprocessing -------------------------
Deleted CNumerics container.
Deleted CIntegration container.
Deleted CSolver container.
Deleted CIteration container.
Deleted CInterpolator container.
Deleted CTransfer container.
Deleted CGeometry container.
Deleted CFreeFormDefBox class.
Deleted CSurfaceMovement class.
Deleted CVolumetricMovement class.
Deleted CConfig container.
Deleted COutput class.
-------------------------------------------------------------------------

Completed in 15.327102 seconds on 1 core.

------------------------- Exit Success (SU2_CFD) ------------------------

