
-------------------------------------------------------------------------
|    ___ _   _ ___                                                      |
|   / __| | | |_  )   Release 5.0.0  "Raven"                            |
|   \__ \ |_| |/ /                                                      |
|   |___/\___//___|   Suite (Computational Fluid Dynamics Code)         |
|                                                                       |
-------------------------------------------------------------------------
| SU2 Original Developers: Dr. Francisco D. Palacios.                   |
|                          Dr. Thomas D. Economon.                      |
-------------------------------------------------------------------------
| SU2 Developers:                                                       |
| - Prof. Juan J. Alonso's group at Stanford University.                |
| - Prof. Piero Colonna's group at Delft University of Technology.      |
| - Prof. Nicolas R. Gauger's group at Kaiserslautern U. of Technology. |
| - Prof. Alberto Guardone's group at Polytechnic University of Milan.  |
| - Prof. Rafael Palacios' group at Imperial College London.            |
| - Prof. Edwin van der Weide's group at the University of Twente.      |
| - Prof. Vincent Terrapon's group at the University of Liege.          |
-------------------------------------------------------------------------
| Copyright (C) 2012-2017 SU2, the open-source CFD code.                |
|                                                                       |
| SU2 is free software; you can redistribute it and/or                  |
| modify it under the terms of the GNU Lesser General Public            |
| License as published by the Free Software Foundation; either          |
| version 2.1 of the License, or (at your option) any later version.    |
|                                                                       |
| SU2 is distributed in the hope that it will be useful,                |
| but WITHOUT ANY WARRANTY; without even the implied warranty of        |
| MERCHANTABILITY or FITNESS FOR A PARTICULAR PURPOSE. See the GNU      |
| Lesser General Public License for more details.                       |
|                                                                       |
| You should have received a copy of the GNU Lesser General Public      |
| License along with SU2. If not, see <http://www.gnu.org/licenses/>.   |
-------------------------------------------------------------------------

------------------------ Physical Case Definition -----------------------
Compressible Euler equations.
Mach number: 0.8.
Angle of attack (AoA): 1.25 deg, and angle of sideslip (AoS): 0 deg.
Read flow solution from: solution_flow.dat.
Non-Dimensional simulation (P=1.0, Rho=1.0, T=1.0 at the farfield).
The reference length/area (force coefficient) is 1.
The reference length (moment computation) is 1.
Reference origin (moment computation) is (0.25, 0, 0).
Surface(s) where the force coefficients are evaluated: airfoil.
Surface(s) plotted in the output file: airfoil.
Surface(s) affected by the design variables: airfoil.
Input mesh file name: mesh_deform.su2

---------------------- Space Numerical Integration ----------------------
Jameson-Schmidt-Turkel scheme for the flow inviscid terms.
JST viscous coefficients (1st, 2nd & 4th): 0.15, 0.5, 0.02.
The method includes a grid stretching correction (p = 0.3).
Second order integration.
Gradient computation using Green-Gauss theorem.

---------------------- Time Numerical Integration -----------------------
Local time stepping (steady state simulation).
Euler implicit method for the flow equations.
V Multigrid Cycle, with 2 multigrid levels.
Damping factor for the residual restriction: 1.
Damping factor for the correction prolongation: 1.
No CFL adaptation.
Multigrid Level:                       0     1     2
Courant-Friedrichs-Lewy number:       10
MG PreSmooth coefficients:             1     2     3
MG PostSmooth coefficients:            0     0     0
MG CorrecSmooth coefficients:          0     0     0

------------------------- Convergence Criteria --------------------------
Maximum number of iterations: 1000.
Reduce the density residual 6 orders of magnitude.
The minimum bound for the density residual is 10^(-10).
Start convergence criteria at iteration 10.

-------------------------- Output Information ---------------------------
Writing a flow solution every 250 iterations.
Writing the convergence history every 1 iterations.
The output file format is Paraview ASCII (.vtk).
Convergence history file name: history_direct.
Forces breakdown file name: forces_breakdown.dat.
Surface flow coefficients file name: surface_flow.
Flow variables file name: flow.
Restart flow file name: restart_flow.dat.

------------------- Config File Boundary Information --------------------
Euler wall boundary marker(s): airfoil.
Far-field boundary marker(s): farfield.

---------------------- Read Grid File Information -----------------------
Two dimensional problem.
5233 points.
2 surface markers.
200 boundary elements in index 0 (Marker = airfoil).
50 boundary elements in index 1 (Marker = farfield).
10216 triangles.

------------------------- Geometry Preprocessing ------------------------
Setting point connectivity.
Renumbering points (Reverse Cuthill McKee Ordering).
Recomputing point connectivity.
Setting element connectivity.
Checking the numerical grid orientation.
Identifying edges and vertices.
Computing centers of gravity.
Setting the control volume structure.
Area of the computational grid: 1.25e+03.
Searching for the closest normal neighbors to the surfaces.
Compute the surface curvature.
Max K: 7.84e+03. Mean K: 36.9. Standard deviation K: 495.
Checking for periodicity.
Setting the multigrid structure.
MG level: 0 -> CVs: 5233. Agglomeration rate 1/1.00. CFL 10.
MG level: 1 -> CVs: 1533. Agglomeration rate 1/3.41. CFL 8.12.
MG level: 2 -> CVs: 443. Agglomeration rate 1/3.46. CFL 6.55.
Computing wall distances.
Wetted area = 2.03 m.
Area projection in the x-plane = 0.0906 m, y-plane = 1 m.

------------------------- Driver information --------------------------
A Fluid driver has been instantiated.

------------------------ Iteration Preprocessing ------------------------
Zone 1: Euler/Navier-Stokes/RANS flow iteration.

------------------------- Solver Preprocessing --------------------------
Inviscid flow: Computing density based on free-stream
temperature and pressure using the ideal gas law.
Force coefficients computed using free-stream values.
-- Input conditions:
Fluid Model: STANDARD_AIR 
Specific gas constant: 287.058 N.m/kg.K.
Specific gas constant (non-dim): 1
Specific Heat Ratio: 1.4
Free-stream static pressure: 101325 Pa.
Free-stream total pressure: 154454 Pa.
Free-stream temperature: 288.15 K.
Free-stream density: 1.22498 kg/m^3.
Free-stream velocity: (272.173, 5.93883) m/s. Magnitude: 272.238 m/s (529.186 KTS).
Free-stream total energy per unit mass: 243846 m^2/s^2.
-- Reference values:
Reference specific gas constant: 287.058 N.m/kg.K.
Reference pressure: 101325 Pa.
Reference temperature: 288.15 K.
Reference density: 1.22498 kg/m^3.
Reference velocity: 287.603 m/s.
Reference energy per unit mass: 82715.8 m^2/s^2.
-- Resulting non-dimensional state:
Mach number (non-dim): 0.8
Specific gas constant (non-dim): 1
Free-stream temperature (non-dim): 1
Free-stream pressure (non-dim): 1
Free-stream density (non-dim): 1
Free-stream velocity (non-dim): (0.946348, 0.0206494). Magnitude: 0.946573
Free-stream total energy per unit mass (non-dim): 2.948

Initialize Jacobian structure (Euler). MG level: 0.
Initialize Jacobian structure (Euler). MG level: 1.
Initialize Jacobian structure (Euler). MG level: 2.

----------------- Integration and Numerics Preprocessing ----------------
Integration Preprocessing.
Numerics Preprocessing.

------------------------------ Begin Solver -----------------------------

---------------------- Local Time Stepping Summary ----------------------
MG level: 0 -> Min. DT: 0.000490637. Max. DT: 3.63396. CFL: 10.
MG level: 1 -> Min. DT: 0.000777132. Max. DT: 5.55366. CFL: 8.11871.
MG level: 2 -> Min. DT: 0.0010444. Max. DT: 7.42509. CFL: 6.5465.
-------------------------------------------------------------------------

----------------------- Residual Evolution Summary ----------------------
log10[Maximum residual]: -7.65099.
Maximum residual point 117, located at (0.0744, 0.0259619).
-------------------------------------------------------------------------

 Iter    Time(s)     Res[Rho]     Res[RhoE]      CL(Total)      CD(Total)
 1948   0.059411    -8.738024     -8.141808       0.032479       0.000402
 1949   0.056162    -8.844271     -8.243884       0.032479       0.000402
 1950   0.053858    -8.850577     -8.255532       0.032479       0.000402
 1951   0.052547    -8.843524     -8.247453       0.032478       0.000402
 1952   0.051659    -8.817187     -8.221330       0.032478       0.000402
 1953   0.051362    -8.788609     -8.192525       0.032478       0.000402
 1954   0.050872    -8.784726     -8.190889       0.032478       0.000402
 1955   0.050507    -8.898448     -8.332239       0.032478       0.000402
 1956   0.050248    -8.895862     -8.330754       0.032478       0.000402
 1957   0.050023    -8.891690     -8.324449       0.032478       0.000402
 1958   0.049926    -8.901751     -8.337118       0.032478       0.000402
 1959   0.049933    -8.920297     -8.361029       0.032478       0.000402
 1960   0.049969    -8.935243     -8.377516       0.032478       0.000402
 1961   0.049899    -8.938419     -8.377514       0.032478       0.000402
 1962   0.049807    -8.928096     -8.360850       0.032478       0.000402
 1963   0.049727    -8.914976     -8.340288       0.032478       0.000402
 1964   0.049682    -8.902296     -8.320321       0.032478       0.000402
 1965   0.049633    -8.895943     -8.308463       0.032478       0.000402
 1966   0.049664    -8.899353     -8.308727       0.032478       0.000402
 1967   0.049734    -8.917238     -8.326632       0.032478       0.000402
 1968   0.049672    -8.956917     -8.371665       0.032478       0.000402
 1969   0.049605    -9.030624     -8.462282       0.032478       0.000402
 1970   0.049562    -9.126526     -8.591017       0.032478       0.000402
 1971   0.049536    -9.170543     -8.646789       0.032478       0.000402
 1972   0.049476    -9.201996     -8.677813       0.032478       0.000402
 1973   0.049438    -9.197137     -8.663691       0.032478       0.000402
 1974   0.049481    -9.184115     -8.642545       0.032478       0.000402
 1975   0.049410    -9.174385     -8.628028       0.032478       0.000402
 1976   0.049489    -9.171340     -8.623199       0.032478       0.000402
 1977   0.049458    -9.162643     -8.611009       0.032478       0.000402
 1978   0.049498    -9.153118     -8.597863       0.032478       0.000402
 1979   0.049432    -9.152275     -8.595739       0.032478       0.000402
 1980   0.049460    -9.161336     -8.605797       0.032478       0.000402
 1981   0.049409    -9.178837     -8.626042       0.032478       0.000402
 1982   0.049365    -9.205711     -8.658164       0.032479       0.000402
 1983   0.049315    -9.242933     -8.704340       0.032479       0.000402
 1984   0.049332    -9.286008     -8.759246       0.032479       0.000402
 1985   0.049282    -9.318179     -8.799048       0.032479       0.000402
 1986   0.049240    -9.326885     -8.807996       0.032479       0.000402
 1987   0.049212    -9.338914     -8.818747       0.032479       0.000402

---------------------- Local Time Stepping Summary ----------------------
MG level: 0 -> Min. DT: 0.000490637. Max. DT: 3.63396. CFL: 10.
MG level: 1 -> Min. DT: 0.000777132. Max. DT: 5.55366. CFL: 8.11871.
MG level: 2 -> Min. DT: 0.0010444. Max. DT: 7.42509. CFL: 6.5465.
-------------------------------------------------------------------------

----------------------- Residual Evolution Summary ----------------------
log10[Maximum residual]: -8.21853.
Maximum residual point 407, located at (0.55191, 0.0576867).
-------------------------------------------------------------------------

 Iter    Time(s)     Res[Rho]     Res[RhoE]      CL(Total)      CD(Total)
 1988   0.049177    -9.328384     -8.799666       0.032479       0.000402
 1989   0.049146    -9.332719     -8.802817       0.032479       0.000402
 1990   0.049237    -9.335201     -8.803719       0.032479       0.000402
 1991   0.049390    -9.352282     -8.824582       0.032479       0.000402
 1992   0.049495    -9.369431     -8.845355       0.032479       0.000402
 1993   0.049601    -9.351341     -8.818282       0.032479       0.000402
 1994   0.049882    -9.321488     -8.776913       0.032479       0.000402
 1995   0.049867    -9.333657     -8.794777       0.032479       0.000402
 1996   0.049825    -9.376733     -8.855237       0.032479       0.000402
 1997   0.049774    -9.407895     -8.892959       0.032479       0.000402
 1998   0.049732    -9.411720     -8.888502       0.032479       0.000402
 1999   0.049695    -9.399967     -8.866029       0.032479       0.000402
 2000   0.049724    -9.392473     -8.852562       0.032479       0.000402
 2001   0.049751    -9.407830     -8.872865       0.032479       0.000402
 2002   0.049756    -9.428792     -8.900616       0.032479       0.000402
 2003   0.049719    -9.430611     -8.896702       0.032479       0.000402
 2004   0.049985    -9.430157     -8.890442       0.032479       0.000402
 2005   0.049954    -9.430594     -8.887694       0.032479       0.000402
 2006   0.049940    -9.435094     -8.891345       0.032479       0.000402
 2007   0.049905    -9.443671     -8.900262       0.032479       0.000402
 2008   0.049866    -9.456135     -8.913866       0.032479       0.000402
 2009   0.049836    -9.471116     -8.930385       0.032479       0.000402
 2010   0.049824    -9.487637     -8.948640       0.032479       0.000402
 2011   0.049930    -9.505035     -8.967860       0.032479       0.000402
 2012   0.049939    -9.523189     -8.987986       0.032479       0.000402
 2013   0.049947    -9.542295     -9.009354       0.032479       0.000402
 2014   0.049932    -9.562626     -9.032364       0.032479       0.000402
 2015   0.049949    -9.583698     -9.056290       0.032479       0.000402
 2016   0.049940    -9.601491     -9.075327       0.032479       0.000402
 2017   0.049926    -9.607519     -9.078910       0.032479       0.000402
 2018   0.049896    -9.617828     -9.090127       0.032479       0.000402
 2019   0.049865    -9.637788     -9.114483       0.032479       0.000402
 2020   0.049839    -9.648582     -9.124029       0.032479       0.000402
 2021   0.049810    -9.650593     -9.120427       0.032479       0.000402
 2022   0.049781    -9.654695     -9.120452       0.032479       0.000402
 2023   0.049757    -9.660093     -9.123019       0.032479       0.000402
 2024   0.049732    -9.668742     -9.130087       0.032479       0.000402
 2025   0.049703    -9.681115     -9.141862       0.032479       0.000402
 2026   0.049691    -9.696381     -9.157111       0.032479       0.000402
 2027   0.049680    -9.713604     -9.174652       0.032479       0.000402

---------------------- Local Time Stepping Summary ----------------------
MG level: 0 -> Min. DT: 0.000490637. Max. DT: 3.63396. CFL: 10.
MG level: 1 -> Min. DT: 0.000777132. Max. DT: 5.55366. CFL: 8.11871.
MG level: 2 -> Min. DT: 0.0010444. Max. DT: 7.42509. CFL: 6.5465.
-------------------------------------------------------------------------

----------------------- Residual Evolution Summary ----------------------
log10[Maximum residual]: -8.47322.
Maximum residual point 616, located at (0.638676, 0.0674311).
-------------------------------------------------------------------------

 Iter    Time(s)     Res[Rho]     Res[RhoE]      CL(Total)      CD(Total)
 2028   0.049661    -9.731993     -9.193577       0.032479       0.000402
 2029   0.049640    -9.751290     -9.213708       0.032479       0.000402
 2030   0.049620    -9.771731     -9.235501       0.032479       0.000402
 2031   0.049602    -9.793629     -9.259482       0.032479       0.000402
 2032   0.049585    -9.817303     -9.286161       0.032479       0.000402
 2033   0.049567    -9.842927     -9.315852       0.032479       0.000402
 2034   0.049592    -9.870320     -9.348358       0.032479       0.000402
 2035   0.049580    -9.898588     -9.382410       0.032479       0.000402
 2036   0.049582    -9.924832     -9.413685       0.032479       0.000402
 2037   0.049562    -9.944620     -9.435487       0.032479       0.000402
 2038   0.049558    -9.906635     -9.377199       0.032479       0.000402
 2039   0.049546    -9.942271     -9.426606       0.032479       0.000402
 2040   0.049541    -9.948396     -9.430657       0.032479       0.000402
 2041   0.049527    -9.942203     -9.415708       0.032479       0.000402
 2042   0.049520    -9.957765     -9.430789       0.032479       0.000402
 2043   0.049514    -9.962405     -9.432122       0.032479       0.000402
 2044   0.049608    -9.978142     -9.448913       0.032479       0.000402
 2045   0.049709    -9.993958     -9.465386       0.032479       0.000402
 2046   0.049786   -10.008363     -9.479441       0.032479       0.000402

-------------------------- File Output Summary --------------------------
Writing comma-separated values (CSV) surface files.
Merging connectivities in the Master node.
Merging coordinates in the Master node.
Merging solution in the Master node.
Writing SU2 native restart file.
Writing Paraview ASCII volume solution file.
Writing Paraview ASCII surface solution file.
Writing the forces breakdown file.
-------------------------------------------------------------------------

History file, closed.

------------------------- Solver Postprocessing -------------------------
Deleted CNumerics container.
Deleted CIntegration container.
Deleted CSolver container.
Deleted CIteration container.
Deleted CInterpolator container.
Deleted CTransfer container.
Deleted CGeometry container.
Deleted CFreeFormDefBox class.
Deleted CSurfaceMovement class.
Deleted CVolumetricMovement class.
Deleted CConfig container.
Deleted COutput class.
-------------------------------------------------------------------------

Completed in 5.017077 seconds on 1 core.

------------------------- Exit Success (SU2_CFD) ------------------------

