
-------------------------------------------------------------------------
|    ___ _   _ ___                                                      |
|   / __| | | |_  )   Release 5.0.0  "Raven"                            |
|   \__ \ |_| |/ /                                                      |
|   |___/\___//___|   Suite (Computational Fluid Dynamics Code)         |
|                                                                       |
-------------------------------------------------------------------------
| SU2 Original Developers: Dr. Francisco D. Palacios.                   |
|                          Dr. Thomas D. Economon.                      |
-------------------------------------------------------------------------
| SU2 Developers:                                                       |
| - Prof. Juan J. Alonso's group at Stanford University.                |
| - Prof. Piero Colonna's group at Delft University of Technology.      |
| - Prof. Nicolas R. Gauger's group at Kaiserslautern U. of Technology. |
| - Prof. Alberto Guardone's group at Polytechnic University of Milan.  |
| - Prof. Rafael Palacios' group at Imperial College London.            |
| - Prof. Edwin van der Weide's group at the University of Twente.      |
| - Prof. Vincent Terrapon's group at the University of Liege.          |
-------------------------------------------------------------------------
| Copyright (C) 2012-2017 SU2, the open-source CFD code.                |
|                                                                       |
| SU2 is free software; you can redistribute it and/or                  |
| modify it under the terms of the GNU Lesser General Public            |
| License as published by the Free Software Foundation; either          |
| version 2.1 of the License, or (at your option) any later version.    |
|                                                                       |
| SU2 is distributed in the hope that it will be useful,                |
| but WITHOUT ANY WARRANTY; without even the implied warranty of        |
| MERCHANTABILITY or FITNESS FOR A PARTICULAR PURPOSE. See the GNU      |
| Lesser General Public License for more details.                       |
|                                                                       |
| You should have received a copy of the GNU Lesser General Public      |
| License along with SU2. If not, see <http://www.gnu.org/licenses/>.   |
-------------------------------------------------------------------------

------------------------ Physical Case Definition -----------------------
Compressible Euler equations.
Mach number: 0.8.
Angle of attack (AoA): 1.25 deg, and angle of sideslip (AoS): 0 deg.
Read flow solution from: solution_flow.dat.
Non-Dimensional simulation (P=1.0, Rho=1.0, T=1.0 at the farfield).
The reference length/area (force coefficient) is 1.
The reference length (moment computation) is 1.
Reference origin (moment computation) is (0.25, 0, 0).
Surface(s) where the force coefficients are evaluated: airfoil.
Surface(s) plotted in the output file: airfoil.
Surface(s) affected by the design variables: airfoil.
Input mesh file name: mesh_NACA0012_inv_deform.su2

---------------------- Space Numerical Integration ----------------------
Jameson-Schmidt-Turkel scheme for the flow inviscid terms.
JST viscous coefficients (1st, 2nd & 4th): 0.15, 0.5, 0.02.
The method includes a grid stretching correction (p = 0.3).
Second order integration.
Gradient computation using Green-Gauss theorem.

---------------------- Time Numerical Integration -----------------------
Local time stepping (steady state simulation).
Euler implicit method for the flow equations.
V Multigrid Cycle, with 2 multigrid levels.
Damping factor for the residual restriction: 1.
Damping factor for the correction prolongation: 1.
No CFL adaptation.
Multigrid Level:                       0     1     2
Courant-Friedrichs-Lewy number:       10
MG PreSmooth coefficients:             1     2     3
MG PostSmooth coefficients:            0     0     0
MG CorrecSmooth coefficients:          0     0     0

------------------------- Convergence Criteria --------------------------
Maximum number of iterations: 1000.
Reduce the density residual 6 orders of magnitude.
The minimum bound for the density residual is 10^(-10).
Start convergence criteria at iteration 10.

-------------------------- Output Information ---------------------------
Writing a flow solution every 250 iterations.
Writing the convergence history every 1 iterations.
The output file format is Paraview ASCII (.vtk).
Convergence history file name: history_direct.
Forces breakdown file name: forces_breakdown.dat.
Surface flow coefficients file name: surface_flow.
Flow variables file name: flow.
Restart flow file name: restart_flow.dat.

------------------- Config File Boundary Information --------------------
Euler wall boundary marker(s): airfoil.
Far-field boundary marker(s): farfield.

---------------------- Read Grid File Information -----------------------
Two dimensional problem.
5233 points.
2 surface markers.
200 boundary elements in index 0 (Marker = airfoil).
50 boundary elements in index 1 (Marker = farfield).
10216 triangles.

------------------------- Geometry Preprocessing ------------------------
Setting point connectivity.
Renumbering points (Reverse Cuthill McKee Ordering).
Recomputing point connectivity.
Setting element connectivity.
Checking the numerical grid orientation.
Identifying edges and vertices.
Computing centers of gravity.
Setting the control volume structure.
Area of the computational grid: 1.25e+03.
Searching for the closest normal neighbors to the surfaces.
Compute the surface curvature.
Max K: 7.84e+03. Mean K: 35.7. Standard deviation K: 494.
Checking for periodicity.
Setting the multigrid structure.
MG level: 0 -> CVs: 5233. Agglomeration rate 1/1.00. CFL 10.
MG level: 1 -> CVs: 1533. Agglomeration rate 1/3.41. CFL 8.12.
MG level: 2 -> CVs: 443. Agglomeration rate 1/3.46. CFL 6.55.
Computing wall distances.
Wetted area = 2.03 m.
Area projection in the x-plane = 0.107 m, y-plane = 1 m.

------------------------- Driver information --------------------------
A Fluid driver has been instantiated.

------------------------ Iteration Preprocessing ------------------------
Zone 1: Euler/Navier-Stokes/RANS flow iteration.

------------------------- Solver Preprocessing --------------------------
Inviscid flow: Computing density based on free-stream
temperature and pressure using the ideal gas law.
Force coefficients computed using free-stream values.
-- Input conditions:
Fluid Model: STANDARD_AIR 
Specific gas constant: 287.058 N.m/kg.K.
Specific gas constant (non-dim): 1
Specific Heat Ratio: 1.4
Free-stream static pressure: 101325 Pa.
Free-stream total pressure: 154454 Pa.
Free-stream temperature: 288.15 K.
Free-stream density: 1.22498 kg/m^3.
Free-stream velocity: (272.173, 5.93883) m/s. Magnitude: 272.238 m/s (529.186 KTS).
Free-stream total energy per unit mass: 243846 m^2/s^2.
-- Reference values:
Reference specific gas constant: 287.058 N.m/kg.K.
Reference pressure: 101325 Pa.
Reference temperature: 288.15 K.
Reference density: 1.22498 kg/m^3.
Reference velocity: 287.603 m/s.
Reference energy per unit mass: 82715.8 m^2/s^2.
-- Resulting non-dimensional state:
Mach number (non-dim): 0.8
Specific gas constant (non-dim): 1
Free-stream temperature (non-dim): 1
Free-stream pressure (non-dim): 1
Free-stream density (non-dim): 1
Free-stream velocity (non-dim): (0.946348, 0.0206494). Magnitude: 0.946573
Free-stream total energy per unit mass (non-dim): 2.948

Initialize Jacobian structure (Euler). MG level: 0.
Initialize Jacobian structure (Euler). MG level: 1.
Initialize Jacobian structure (Euler). MG level: 2.

----------------- Integration and Numerics Preprocessing ----------------
Integration Preprocessing.
Numerics Preprocessing.

------------------------------ Begin Solver -----------------------------

---------------------- Local Time Stepping Summary ----------------------
MG level: 0 -> Min. DT: 0.000497809. Max. DT: 3.6287. CFL: 10.
MG level: 1 -> Min. DT: 0.00078444. Max. DT: 5.54687. CFL: 8.11871.
MG level: 2 -> Min. DT: 0.0010489. Max. DT: 7.41459. CFL: 6.5465.
-------------------------------------------------------------------------

----------------------- Residual Evolution Summary ----------------------
log10[Maximum residual]: -6.48851.
Maximum residual point 105, located at (0.00752, 0.0115502).
-------------------------------------------------------------------------

 Iter    Time(s)     Res[Rho]     Res[RhoE]      CL(Total)      CD(Total)
 3666   0.062671    -7.591150     -6.994770       0.066732       0.000439
 3667   0.059327    -7.654664     -7.052152       0.066736       0.000443
 3668   0.057335    -7.669568     -7.072604       0.066739       0.000445
 3669   0.055906    -7.638697     -7.038029       0.066742       0.000446
 3670   0.054602    -7.582970     -6.980286       0.066746       0.000448
 3671   0.053698    -7.549382     -6.948520       0.066750       0.000448
 3672   0.052957    -7.534450     -6.936147       0.066754       0.000449
 3673   0.052507    -7.523384     -6.926360       0.066758       0.000450
 3674   0.051973    -7.515108     -6.918853       0.066761       0.000450
 3675   0.051794    -7.505472     -6.908986       0.066764       0.000450
 3676   0.051567    -7.496293     -6.899185       0.066767       0.000451
 3677   0.051528    -7.496317     -6.899413       0.066770       0.000451
 3678   0.051592    -7.504756     -6.908443       0.066772       0.000451
 3679   0.051852    -7.519379     -6.923611       0.066775       0.000451
 3680   0.051668    -7.538068     -6.942392       0.066777       0.000451
 3681   0.051486    -7.558529     -6.961950       0.066779       0.000451
 3682   0.051326    -7.578603     -6.979736       0.066781       0.000451
 3683   0.051155    -7.597418     -6.995069       0.066783       0.000452
 3684   0.051021    -7.616553     -7.010430       0.066784       0.000452
 3685   0.051075    -7.639565     -7.030552       0.066786       0.000452
 3686   0.051190    -7.670631     -7.060659       0.066788       0.000452
 3687   0.051118    -7.711866     -7.103613       0.066789       0.000452
 3688   0.051050    -7.760074     -7.156320       0.066791       0.000452
 3689   0.051052    -7.808139     -7.210826       0.066792       0.000452
 3690   0.050972    -7.849067     -7.258551       0.066794       0.000452
 3691   0.050865    -7.880307     -7.295757       0.066795       0.000452
 3692   0.050756    -7.902260     -7.322463       0.066796       0.000452
 3693   0.050694    -7.916847     -7.340829       0.066797       0.000452
 3694   0.050647    -7.925881     -7.352916       0.066798       0.000452
 3695   0.050654    -7.931474     -7.360988       0.066799       0.000452
 3696   0.050636    -7.934632     -7.365802       0.066800       0.000452
 3697   0.050597    -7.936537     -7.368521       0.066801       0.000452
 3698   0.050519    -7.939215     -7.371671       0.066801       0.000452
 3699   0.050537    -7.943527     -7.376455       0.066802       0.000452
 3700   0.050470    -7.949367     -7.382853       0.066803       0.000452
 3701   0.050446    -7.957245     -7.391559       0.066803       0.000452
 3702   0.050408    -7.968223     -7.403945       0.066804       0.000452
 3703   0.050383    -7.983353     -7.421408       0.066805       0.000452
 3704   0.050389    -8.003453     -7.445178       0.066805       0.000452
 3705   0.050403    -8.028452     -7.475482       0.066806       0.000452

---------------------- Local Time Stepping Summary ----------------------
MG level: 0 -> Min. DT: 0.000497809. Max. DT: 3.6287. CFL: 10.
MG level: 1 -> Min. DT: 0.00078444. Max. DT: 5.54686. CFL: 8.11871.
MG level: 2 -> Min. DT: 0.0010489. Max. DT: 7.41459. CFL: 6.5465.
-------------------------------------------------------------------------

----------------------- Residual Evolution Summary ----------------------
log10[Maximum residual]: -7.0129.
Maximum residual point 1906, located at (0.603228, 0.284622).
-------------------------------------------------------------------------

 Iter    Time(s)     Res[Rho]     Res[RhoE]      CL(Total)      CD(Total)
 3706   0.050410    -8.057122     -7.511031       0.066806       0.000452
 3707   0.050378    -8.087217     -7.548902       0.066807       0.000452
 3708   0.050358    -8.116008     -7.585088       0.066807       0.000452
 3709   0.050313    -8.140936     -7.615860       0.066808       0.000452
 3710   0.050276    -8.159186     -7.637638       0.066808       0.000452
 3711   0.050241    -8.167613     -7.645985       0.066808       0.000452
 3712   0.050199    -8.169391     -7.645268       0.066809       0.000452
 3713   0.050169    -8.171346     -7.645461       0.066809       0.000452
 3714   0.050130    -8.175887     -7.649770       0.066809       0.000452
 3715   0.050403    -8.182612     -7.657186       0.066810       0.000452
 3716   0.051031    -8.185245     -7.658236       0.066810       0.000452
 3717   0.051195    -8.176982     -7.644739       0.066810       0.000452
 3718   0.051436    -8.171510     -7.636468       0.066810       0.000452
 3719   0.051431    -8.168241     -7.631314       0.066810       0.000452
 3720   0.051562    -8.167567     -7.629167       0.066810       0.000452
 3721   0.051588    -8.170622     -7.631765       0.066811       0.000452
 3722   0.051572    -8.176073     -7.637369       0.066811       0.000452
 3723   0.051516    -8.183422     -7.645265       0.066811       0.000452
 3724   0.051518    -8.192295     -7.654977       0.066811       0.000452
 3725   0.051535    -8.202569     -7.666382       0.066811       0.000452
 3726   0.051502    -8.214328     -7.679633       0.066811       0.000452
 3727   0.051460    -8.227715     -7.694931       0.066811       0.000452
 3728   0.051442    -8.242851     -7.712426       0.066811       0.000452
 3729   0.051400    -8.259795     -7.732198       0.066811       0.000452
 3730   0.051345    -8.278372     -7.754025       0.066811       0.000452
 3731   0.051311    -8.298065     -7.777231       0.066811       0.000452
 3732   0.051272    -8.318011     -7.800647       0.066811       0.000452
 3733   0.051247    -8.336976     -7.822537       0.066811       0.000452
 3734   0.051251    -8.352785     -7.839655       0.066811       0.000452
 3735   0.051242    -8.361955     -7.847463       0.066811       0.000452
 3736   0.051255    -8.375431     -7.863735       0.066811       0.000452
 3737   0.051213    -8.378465     -7.862554       0.066811       0.000452
 3738   0.051173    -8.366615     -7.842666       0.066811       0.000452
 3739   0.051142    -8.372696     -7.848363       0.066811       0.000452
 3740   0.051101    -8.382940     -7.858970       0.066811       0.000452
 3741   0.051068    -8.392991     -7.868197       0.066811       0.000452
 3742   0.051027    -8.406051     -7.881319       0.066811       0.000452
 3743   0.050991    -8.418757     -7.893972       0.066811       0.000452
 3744   0.051006    -8.431290     -7.906212       0.066811       0.000452
 3745   0.051015    -8.442560     -7.916522       0.066811       0.000452

---------------------- Local Time Stepping Summary ----------------------
MG level: 0 -> Min. DT: 0.000497809. Max. DT: 3.6287. CFL: 10.
MG level: 1 -> Min. DT: 0.00078444. Max. DT: 5.54686. CFL: 8.11871.
MG level: 2 -> Min. DT: 0.00104891. Max. DT: 7.41459. CFL: 6.5465.
-------------------------------------------------------------------------

----------------------- Residual Evolution Summary ----------------------
log10[Maximum residual]: -7.28829.
Maximum residual point 1183, located at (0.596855, 0.131536).
-------------------------------------------------------------------------

 Iter    Time(s)     Res[Rho]     Res[RhoE]      CL(Total)      CD(Total)
 3746   0.050983    -8.452761     -7.925380       0.066811       0.000452
 3747   0.050979    -8.462821     -7.934210       0.066811       0.000452
 3748   0.050941    -8.473707     -7.944312       0.066811       0.000452
 3749   0.050918    -8.486211     -7.956681       0.066811       0.000452
 3750   0.050889    -8.500659     -7.971685       0.066811       0.000452
 3751   0.050869    -8.517090     -7.989342       0.066811       0.000452
 3752   0.050859    -8.535375     -8.009460       0.066811       0.000452
 3753   0.050861    -8.555295     -8.031725       0.066812       0.000452
 3754   0.050842    -8.576579     -8.055753       0.066812       0.000452
 3755   0.050829    -8.598926     -8.081112       0.066812       0.000452
 3756   0.050838    -8.621981     -8.107289       0.066812       0.000452
 3757   0.050973    -8.645220     -8.133516       0.066812       0.000452
 3758   0.050964    -8.667619     -8.158268       0.066812       0.000452
 3759   0.050937    -8.686569     -8.177692       0.066812       0.000452
 3760   0.050907    -8.696891     -8.184792       0.066812       0.000452
 3761   0.050894    -8.703933     -8.188300       0.066812       0.000452
 3762   0.050903    -8.715256     -8.199115       0.066812       0.000452
 3763   0.050911    -8.731471     -8.217754       0.066812       0.000452
 3764   0.050912    -8.751329     -8.240535       0.066812       0.000452
 3765   0.050913    -8.769746     -8.259488       0.066812       0.000452
 3766   0.050919    -8.784794     -8.272590       0.066812       0.000452
 3767   0.050923    -8.798247     -8.283463       0.066812       0.000452
 3768   0.050916    -8.812219     -8.295458       0.066812       0.000452
 3769   0.050890    -8.827279     -8.309245       0.066812       0.000452
 3770   0.050868    -8.843899     -8.325257       0.066812       0.000452
 3771   0.050843    -8.861778     -8.342903       0.066812       0.000452
 3772   0.050814    -8.880073     -8.360926       0.066812       0.000452
 3773   0.050799    -8.898000     -8.378258       0.066812       0.000452
 3774   0.050783    -8.915105     -8.394380       0.066812       0.000452
 3775   0.050775    -8.931498     -8.409572       0.066812       0.000452
 3776   0.050800    -8.947727     -8.424683       0.066812       0.000452
 3777   0.050776    -8.964508     -8.440720       0.066812       0.000452
 3778   0.050757    -8.982463     -8.458493       0.066812       0.000452
 3779   0.050739    -9.001959     -8.478428       0.066812       0.000452
 3780   0.050718    -9.023077     -8.500550       0.066812       0.000452
 3781   0.050696    -9.045675     -8.524589       0.066812       0.000452
 3782   0.050682    -9.069480     -8.550115       0.066812       0.000452
 3783   0.050665    -9.094179     -8.576671       0.066812       0.000452
 3784   0.050708    -9.119479     -8.603847       0.066812       0.000452
 3785   0.050708    -9.145141     -8.631322       0.066812       0.000452

---------------------- Local Time Stepping Summary ----------------------
MG level: 0 -> Min. DT: 0.000497809. Max. DT: 3.6287. CFL: 10.
MG level: 1 -> Min. DT: 0.00078444. Max. DT: 5.54686. CFL: 8.11871.
MG level: 2 -> Min. DT: 0.00104891. Max. DT: 7.41459. CFL: 6.5465.
-------------------------------------------------------------------------

----------------------- Residual Evolution Summary ----------------------
log10[Maximum residual]: -7.92753.
Maximum residual point 407, located at (0.551932, 0.0591151).
-------------------------------------------------------------------------

 Iter    Time(s)     Res[Rho]     Res[RhoE]      CL(Total)      CD(Total)
 3786   0.050697    -9.170994     -8.658876       0.066812       0.000452
 3787   0.050682    -9.196959     -8.686418       0.066812       0.000452
 3788   0.050667    -9.223075     -8.714027       0.066812       0.000452
 3789   0.050681    -9.249519     -8.741971       0.066812       0.000452
 3790   0.050664    -9.276577     -8.770665       0.066812       0.000452
 3791   0.050650    -9.304582     -8.800565       0.066812       0.000452
 3792   0.050629    -9.333816     -8.832031       0.066812       0.000452
 3793   0.050631    -9.364437     -8.865210       0.066812       0.000452
 3794   0.050647    -9.396426     -8.899974       0.066812       0.000452
 3795   0.050653    -9.429587     -8.935932       0.066812       0.000452
 3796   0.050674    -9.463508     -8.972410       0.066812       0.000452
 3797   0.050693    -9.497510     -9.008444       0.066812       0.000452
 3798   0.050699    -9.530809     -9.042994       0.066812       0.000452
 3799   0.050684    -9.562191     -9.074380       0.066812       0.000452
 3800   0.050665    -9.591595     -9.102811       0.066812       0.000452
 3801   0.050647    -9.612884     -9.119098       0.066812       0.000452
 3802   0.050632    -9.638733     -9.146329       0.066812       0.000452
 3803   0.050618    -9.651835     -9.152203       0.066812       0.000452
 3804   0.050625    -9.655668     -9.148579       0.066812       0.000452
 3805   0.050617    -9.662640     -9.150363       0.066812       0.000452
 3806   0.050613    -9.685313     -9.173114       0.066812       0.000452
 3807   0.050595    -9.716020     -9.207951       0.066812       0.000452
 3808   0.050592    -9.752873     -9.251569       0.066812       0.000452
 3809   0.050577    -9.780299     -9.279248       0.066812       0.000452
 3810   0.050565    -9.792113     -9.283969       0.066812       0.000452
 3811   0.050558    -9.828750     -9.328671       0.066812       0.000452
 3812   0.050546    -9.862111     -9.368198       0.066812       0.000452
 3813   0.050602    -9.878685     -9.379298       0.066812       0.000452
 3814   0.050675    -9.902078     -9.398906       0.066812       0.000452
 3815   0.050658    -9.917783     -9.409080       0.066812       0.000452
 3816   0.050671    -9.929868     -9.415798       0.066812       0.000452
 3817   0.050740    -9.937781     -9.417903       0.066812       0.000452
 3818   0.050743    -9.945490     -9.420783       0.066812       0.000452
 3819   0.050728    -9.953288     -9.424475       0.066812       0.000452
 3820   0.050715    -9.962325     -9.430199       0.066812       0.000452
 3821   0.050699    -9.972535     -9.437623       0.066812       0.000452
 3822   0.050684    -9.983660     -9.446298       0.066812       0.000452
 3823   0.050683    -9.995215     -9.455570       0.066812       0.000452
 3824   0.050708   -10.006797     -9.464946       0.066812       0.000452

-------------------------- File Output Summary --------------------------
Writing comma-separated values (CSV) surface files.
Merging connectivities in the Master node.
Merging coordinates in the Master node.
Merging solution in the Master node.
Writing SU2 native restart file.
Writing Paraview ASCII volume solution file.
Writing Paraview ASCII surface solution file.
Writing the forces breakdown file.
-------------------------------------------------------------------------

History file, closed.

------------------------- Solver Postprocessing -------------------------
Deleted CNumerics container.
Deleted CIntegration container.
Deleted CSolver container.
Deleted CIteration container.
Deleted CInterpolator container.
Deleted CTransfer container.
Deleted CGeometry container.
Deleted CFreeFormDefBox class.
Deleted CSurfaceMovement class.
Deleted CVolumetricMovement class.
Deleted CConfig container.
Deleted COutput class.
-------------------------------------------------------------------------

Completed in 8.147327 seconds on 1 core.

------------------------- Exit Success (SU2_CFD) ------------------------

