
-------------------------------------------------------------------------
|    ___ _   _ ___                                                      |
|   / __| | | |_  )   Release 5.0.0  "Raven"                            |
|   \__ \ |_| |/ /                                                      |
|   |___/\___//___|   Suite (Computational Fluid Dynamics Code)         |
|                                                                       |
-------------------------------------------------------------------------
| SU2 Original Developers: Dr. Francisco D. Palacios.                   |
|                          Dr. Thomas D. Economon.                      |
-------------------------------------------------------------------------
| SU2 Developers:                                                       |
| - Prof. Juan J. Alonso's group at Stanford University.                |
| - Prof. Piero Colonna's group at Delft University of Technology.      |
| - Prof. Nicolas R. Gauger's group at Kaiserslautern U. of Technology. |
| - Prof. Alberto Guardone's group at Polytechnic University of Milan.  |
| - Prof. Rafael Palacios' group at Imperial College London.            |
| - Prof. Edwin van der Weide's group at the University of Twente.      |
| - Prof. Vincent Terrapon's group at the University of Liege.          |
-------------------------------------------------------------------------
| Copyright (C) 2012-2017 SU2, the open-source CFD code.                |
|                                                                       |
| SU2 is free software; you can redistribute it and/or                  |
| modify it under the terms of the GNU Lesser General Public            |
| License as published by the Free Software Foundation; either          |
| version 2.1 of the License, or (at your option) any later version.    |
|                                                                       |
| SU2 is distributed in the hope that it will be useful,                |
| but WITHOUT ANY WARRANTY; without even the implied warranty of        |
| MERCHANTABILITY or FITNESS FOR A PARTICULAR PURPOSE. See the GNU      |
| Lesser General Public License for more details.                       |
|                                                                       |
| You should have received a copy of the GNU Lesser General Public      |
| License along with SU2. If not, see <http://www.gnu.org/licenses/>.   |
-------------------------------------------------------------------------

------------------------ Physical Case Definition -----------------------
Compressible Euler equations.
Mach number: 0.8.
Angle of attack (AoA): 1.25 deg, and angle of sideslip (AoS): 0 deg.
Read flow solution from: solution_flow.dat.
Non-Dimensional simulation (P=1.0, Rho=1.0, T=1.0 at the farfield).
The reference length/area (force coefficient) is 1.
The reference length (moment computation) is 1.
Reference origin (moment computation) is (0.25, 0, 0).
Surface(s) where the force coefficients are evaluated: airfoil.
Surface(s) plotted in the output file: airfoil.
Surface(s) affected by the design variables: airfoil.
Input mesh file name: mesh_deform.su2

---------------------- Space Numerical Integration ----------------------
Jameson-Schmidt-Turkel scheme for the flow inviscid terms.
JST viscous coefficients (1st, 2nd & 4th): 0.15, 0.5, 0.02.
The method includes a grid stretching correction (p = 0.3).
Second order integration.
Gradient computation using Green-Gauss theorem.

---------------------- Time Numerical Integration -----------------------
Local time stepping (steady state simulation).
Euler implicit method for the flow equations.
V Multigrid Cycle, with 2 multigrid levels.
Damping factor for the residual restriction: 1.
Damping factor for the correction prolongation: 1.
No CFL adaptation.
Multigrid Level:                       0     1     2
Courant-Friedrichs-Lewy number:       10
MG PreSmooth coefficients:             1     2     3
MG PostSmooth coefficients:            0     0     0
MG CorrecSmooth coefficients:          0     0     0

------------------------- Convergence Criteria --------------------------
Maximum number of iterations: 1000.
Reduce the density residual 6 orders of magnitude.
The minimum bound for the density residual is 10^(-10).
Start convergence criteria at iteration 10.

-------------------------- Output Information ---------------------------
Writing a flow solution every 250 iterations.
Writing the convergence history every 1 iterations.
The output file format is Paraview ASCII (.vtk).
Convergence history file name: history_direct.
Forces breakdown file name: forces_breakdown.dat.
Surface flow coefficients file name: surface_flow.
Flow variables file name: flow.
Restart flow file name: restart_flow.dat.

------------------- Config File Boundary Information --------------------
Euler wall boundary marker(s): airfoil.
Far-field boundary marker(s): farfield.

---------------------- Read Grid File Information -----------------------
Two dimensional problem.
5233 points.
2 surface markers.
200 boundary elements in index 0 (Marker = airfoil).
50 boundary elements in index 1 (Marker = farfield).
10216 triangles.

------------------------- Geometry Preprocessing ------------------------
Setting point connectivity.
Renumbering points (Reverse Cuthill McKee Ordering).
Recomputing point connectivity.
Setting element connectivity.
Checking the numerical grid orientation.
Identifying edges and vertices.
Computing centers of gravity.
Setting the control volume structure.
Area of the computational grid: 1.25e+03.
Searching for the closest normal neighbors to the surfaces.
Compute the surface curvature.
Max K: 7.84e+03. Mean K: 37. Standard deviation K: 495.
Checking for periodicity.
Setting the multigrid structure.
MG level: 0 -> CVs: 5233. Agglomeration rate 1/1.00. CFL 10.
MG level: 1 -> CVs: 1533. Agglomeration rate 1/3.41. CFL 8.12.
MG level: 2 -> CVs: 443. Agglomeration rate 1/3.46. CFL 6.55.
Computing wall distances.
Wetted area = 2.03 m.
Area projection in the x-plane = 0.0911 m, y-plane = 1 m.

------------------------- Driver information --------------------------
A Fluid driver has been instantiated.

------------------------ Iteration Preprocessing ------------------------
Zone 1: Euler/Navier-Stokes/RANS flow iteration.

------------------------- Solver Preprocessing --------------------------
Inviscid flow: Computing density based on free-stream
temperature and pressure using the ideal gas law.
Force coefficients computed using free-stream values.
-- Input conditions:
Fluid Model: STANDARD_AIR 
Specific gas constant: 287.058 N.m/kg.K.
Specific gas constant (non-dim): 1
Specific Heat Ratio: 1.4
Free-stream static pressure: 101325 Pa.
Free-stream total pressure: 154454 Pa.
Free-stream temperature: 288.15 K.
Free-stream density: 1.22498 kg/m^3.
Free-stream velocity: (272.173, 5.93883) m/s. Magnitude: 272.238 m/s (529.186 KTS).
Free-stream total energy per unit mass: 243846 m^2/s^2.
-- Reference values:
Reference specific gas constant: 287.058 N.m/kg.K.
Reference pressure: 101325 Pa.
Reference temperature: 288.15 K.
Reference density: 1.22498 kg/m^3.
Reference velocity: 287.603 m/s.
Reference energy per unit mass: 82715.8 m^2/s^2.
-- Resulting non-dimensional state:
Mach number (non-dim): 0.8
Specific gas constant (non-dim): 1
Free-stream temperature (non-dim): 1
Free-stream pressure (non-dim): 1
Free-stream density (non-dim): 1
Free-stream velocity (non-dim): (0.946348, 0.0206494). Magnitude: 0.946573
Free-stream total energy per unit mass (non-dim): 2.948

Initialize Jacobian structure (Euler). MG level: 0.
Initialize Jacobian structure (Euler). MG level: 1.
Initialize Jacobian structure (Euler). MG level: 2.

----------------- Integration and Numerics Preprocessing ----------------
Integration Preprocessing.
Numerics Preprocessing.

------------------------------ Begin Solver -----------------------------

---------------------- Local Time Stepping Summary ----------------------
MG level: 0 -> Min. DT: 0.000492759. Max. DT: 3.63376. CFL: 10.
MG level: 1 -> Min. DT: 0.0007816. Max. DT: 5.55352. CFL: 8.11871.
MG level: 2 -> Min. DT: 0.00105084. Max. DT: 7.42502. CFL: 6.5465.
-------------------------------------------------------------------------

----------------------- Residual Evolution Summary ----------------------
log10[Maximum residual]: -4.61518.
Maximum residual point 142, located at (0.38654, 0.0459298).
-------------------------------------------------------------------------

 Iter    Time(s)     Res[Rho]     Res[RhoE]      CL(Total)      CD(Total)
  895   0.054147    -5.734242     -5.137863       0.034096       0.000326
  896   0.052677    -5.819595     -5.219153       0.033899       0.000277
  897   0.051925    -5.838642     -5.244499       0.033756       0.000248
  898   0.051129    -5.832631     -5.237593       0.033638       0.000254
  899   0.050557    -5.797034     -5.202208       0.033520       0.000269
  900   0.050042    -5.757982     -5.163035       0.033417       0.000285
  901   0.049766    -5.737140     -5.143661       0.033326       0.000302
  902   0.049950    -5.742927     -5.153351       0.033241       0.000316
  903   0.049945    -5.746972     -5.159062       0.033161       0.000327
  904   0.049757    -5.750199     -5.162610       0.033091       0.000337
  905   0.049765    -5.772796     -5.189397       0.033032       0.000341
  906   0.049738    -5.809948     -5.235778       0.032980       0.000346
  907   0.049723    -5.864213     -5.301373       0.032937       0.000354
  908   0.049662    -5.926411     -5.379178       0.032900       0.000351
  909   0.049666    -5.952487     -5.413839       0.032867       0.000371
  910   0.049611    -5.928688     -5.384930       0.032858       0.000382
  911   0.049530    -5.894386     -5.341731       0.032866       0.000390
  912   0.049437    -5.876459     -5.318517       0.032879       0.000401
  913   0.049400    -5.872430     -5.312180       0.032894       0.000412
  914   0.049323    -5.873691     -5.312239       0.032915       0.000421
  915   0.049266    -5.881908     -5.320764       0.032939       0.000430
  916   0.049320    -5.905613     -5.348189       0.032966       0.000438
  917   0.049861    -5.947240     -5.398353       0.032996       0.000445
  918   0.050303    -5.999112     -5.462612       0.033028       0.000451
  919   0.050587    -6.047672     -5.523369       0.033061       0.000453
  920   0.050628    -6.067718     -5.545324       0.033096       0.000454
  921   0.050949    -6.057641     -5.526160       0.033130       0.000456
  922   0.051013    -6.045538     -5.507281       0.033162       0.000456
  923   0.051098    -6.026786     -5.481437       0.033193       0.000456
  924   0.050997    -6.009370     -5.458523       0.033222       0.000454
  925   0.050893    -5.998119     -5.443822       0.033249       0.000453
  926   0.050802    -5.996226     -5.440598       0.033274       0.000451
  927   0.050727    -6.002521     -5.447095       0.033297       0.000449
  928   0.050638    -6.017616     -5.464302       0.033319       0.000447
  929   0.050566    -6.041896     -5.493247       0.033340       0.000445
  930   0.050493    -6.074900     -5.533991       0.033360       0.000442
  931   0.050423    -6.111015     -5.579463       0.033377       0.000442
  932   0.050372    -6.126584     -5.597317       0.033394       0.000441
  933   0.050302    -6.146542     -5.625773       0.033410       0.000438
  934   0.050241    -6.152029     -5.627811       0.033421       0.000437

---------------------- Local Time Stepping Summary ----------------------
MG level: 0 -> Min. DT: 0.000492721. Max. DT: 3.63376. CFL: 10.
MG level: 1 -> Min. DT: 0.000781379. Max. DT: 5.55353. CFL: 8.11871.
MG level: 2 -> Min. DT: 0.00105061. Max. DT: 7.42502. CFL: 6.5465.
-------------------------------------------------------------------------

----------------------- Residual Evolution Summary ----------------------
log10[Maximum residual]: -5.02477.
Maximum residual point 1183, located at (0.596929, 0.129602).
-------------------------------------------------------------------------

 Iter    Time(s)     Res[Rho]     Res[RhoE]      CL(Total)      CD(Total)
  935   0.050174    -6.139059     -5.605676       0.033432       0.000436
  936   0.050152    -6.137445     -5.601661       0.033440       0.000435
  937   0.050138    -6.141107     -5.605491       0.033447       0.000434
  938   0.050096    -6.152270     -5.618834       0.033452       0.000434
  939   0.050050    -6.169921     -5.640531       0.033456       0.000433
  940   0.050000    -6.186773     -5.660487       0.033458       0.000433
  941   0.049977    -6.199031     -5.673475       0.033459       0.000432
  942   0.049969    -6.208899     -5.683357       0.033459       0.000432
  943   0.049950    -6.222014     -5.698669       0.033458       0.000431
  944   0.049933    -6.238645     -5.719427       0.033455       0.000430
  945   0.049889    -6.253665     -5.736841       0.033452       0.000430
  946   0.049858    -6.266410     -5.750231       0.033448       0.000431
  947   0.049815    -6.277532     -5.761887       0.033443       0.000431
  948   0.049767    -6.288715     -5.774259       0.033439       0.000431
  949   0.049732    -6.299853     -5.786527       0.033433       0.000431
  950   0.049692    -6.309708     -5.796748       0.033428       0.000431
  951   0.049666    -6.318339     -5.805248       0.033422       0.000432
  952   0.049657    -6.326873     -5.813778       0.033416       0.000432
  953   0.049623    -6.336206     -5.823616       0.033410       0.000432
  954   0.049588    -6.346829     -5.835360       0.033404       0.000432
  955   0.049560    -6.358228     -5.847978       0.033398       0.000432
  956   0.049540    -6.366092     -5.854717       0.033392       0.000429
  957   0.049538    -6.371561     -5.859352       0.033385       0.000433
  958   0.049512    -6.373293     -5.856979       0.033379       0.000431
  959   0.049483    -6.383157     -5.868945       0.033374       0.000432
  960   0.049463    -6.391656     -5.876586       0.033369       0.000432
  961   0.049441    -6.389613     -5.868270       0.033364       0.000432
  962   0.049473    -6.397708     -5.875842       0.033360       0.000432
  963   0.049484    -6.406199     -5.884369       0.033357       0.000432
  964   0.049466    -6.417301     -5.896202       0.033354       0.000431
  965   0.049464    -6.430423     -5.910287       0.033352       0.000431
  966   0.049445    -6.443602     -5.924125       0.033351       0.000431
  967   0.049431    -6.456888     -5.937818       0.033350       0.000431
  968   0.049418    -6.468528     -5.949031       0.033349       0.000431
  969   0.049396    -6.478998     -5.958639       0.033349       0.000431
  970   0.049375    -6.488810     -5.967483       0.033349       0.000431
  971   0.049351    -6.499400     -5.977591       0.033349       0.000431
  972   0.049331    -6.512044     -5.990604       0.033350       0.000431
  973   0.049309    -6.527575     -6.007521       0.033350       0.000431
  974   0.049304    -6.546338     -6.028718       0.033351       0.000431

---------------------- Local Time Stepping Summary ----------------------
MG level: 0 -> Min. DT: 0.000492726. Max. DT: 3.63376. CFL: 10.
MG level: 1 -> Min. DT: 0.00078136. Max. DT: 5.55353. CFL: 8.11871.
MG level: 2 -> Min. DT: 0.00105061. Max. DT: 7.42503. CFL: 6.5465.
-------------------------------------------------------------------------

----------------------- Residual Evolution Summary ----------------------
log10[Maximum residual]: -5.37137.
Maximum residual point 261, located at (0.583357, 0.0558161).
-------------------------------------------------------------------------

 Iter    Time(s)     Res[Rho]     Res[RhoE]      CL(Total)      CD(Total)
  975   0.049285    -6.568052     -6.053715       0.033352       0.000431
  976   0.049274    -6.591296     -6.080352       0.033352       0.000430
  977   0.049256    -6.610113     -6.099828       0.033353       0.000431
  978   0.049280    -6.624644     -6.116175       0.033355       0.000431
  979   0.049264    -6.643488     -6.136038       0.033356       0.000430
  980   0.049252    -6.655555     -6.145590       0.033356       0.000430
  981   0.049237    -6.653981     -6.136552       0.033357       0.000430
  982   0.049221    -6.666534     -6.148157       0.033357       0.000430
  983   0.049269    -6.683180     -6.165906       0.033357       0.000430
  984   0.049291    -6.706515     -6.192550       0.033357       0.000430
  985   0.049277    -6.734177     -6.224583       0.033357       0.000430
  986   0.049279    -6.761782     -6.255605       0.033357       0.000429
  987   0.049358    -6.787452     -6.283176       0.033356       0.000429
  988   0.049369    -6.810179     -6.306537       0.033356       0.000429
  989   0.049401    -6.830836     -6.327119       0.033355       0.000429
  990   0.049385    -6.851255     -6.347684       0.033354       0.000429
  991   0.049368    -6.871960     -6.369042       0.033354       0.000429
  992   0.049363    -6.893678     -6.392094       0.033353       0.000429
  993   0.049366    -6.915742     -6.415544       0.033353       0.000429
  994   0.049356    -6.936990     -6.437562       0.033352       0.000429
  995   0.049340    -6.955715     -6.455992       0.033352       0.000428
  996   0.049324    -6.962336     -6.456819       0.033351       0.000428
  997   0.049312    -6.946825     -6.426770       0.033351       0.000428
  998   0.049300    -6.968917     -6.455359       0.033350       0.000429
  999   0.049301    -6.983902     -6.474653       0.033350       0.000429
 1000   0.049289    -6.983373     -6.467508       0.033349       0.000428
 1001   0.049273    -6.994793     -6.475878       0.033349       0.000428
 1002   0.049266    -7.006108     -6.485783       0.033348       0.000428
 1003   0.049257    -7.021684     -6.502635       0.033348       0.000428
 1004   0.049242    -7.040292     -6.523570       0.033348       0.000428
 1005   0.049236    -7.058839     -6.543797       0.033348       0.000428
 1006   0.049234    -7.074581     -6.559500       0.033348       0.000428
 1007   0.049244    -7.086432     -6.569648       0.033348       0.000428
 1008   0.049251    -7.095222     -6.575886       0.033348       0.000428
 1009   0.049270    -7.102321     -6.580284       0.033348       0.000428
 1010   0.049264    -7.109035     -6.584606       0.033349       0.000428
 1011   0.049264    -7.116226     -6.589918       0.033349       0.000428
 1012   0.049251    -7.124303     -6.596640       0.033350       0.000428
 1013   0.049239    -7.133299     -6.604701       0.033350       0.000428
 1014   0.049225    -7.143047     -6.613801       0.033351       0.000428

---------------------- Local Time Stepping Summary ----------------------
MG level: 0 -> Min. DT: 0.000492723. Max. DT: 3.63376. CFL: 10.
MG level: 1 -> Min. DT: 0.000781359. Max. DT: 5.55353. CFL: 8.11871.
MG level: 2 -> Min. DT: 0.00105061. Max. DT: 7.42503. CFL: 6.5465.
-------------------------------------------------------------------------

----------------------- Residual Evolution Summary ----------------------
log10[Maximum residual]: -6.0393.
Maximum residual point 617, located at (0.560735, 0.0729185).
-------------------------------------------------------------------------

 Iter    Time(s)     Res[Rho]     Res[RhoE]      CL(Total)      CD(Total)
 1015   0.049221    -7.153320     -6.623598       0.033351       0.000428
 1016   0.049216    -7.163981     -6.633894       0.033352       0.000428
 1017   0.049214    -7.174998     -6.644654       0.033353       0.000428
 1018   0.049290    -7.186452     -6.655996       0.033353       0.000428
 1019   0.049366    -7.198504     -6.668153       0.033354       0.000428
 1020   0.049437    -7.211334     -6.681373       0.033355       0.000428
 1021   0.049455    -7.225118     -6.695892       0.033355       0.000428
 1022   0.049462    -7.239973     -6.711861       0.033356       0.000428
 1023   0.049480    -7.255957     -6.729355       0.033356       0.000428
 1024   0.049499    -7.273089     -6.748400       0.033357       0.000428
 1025   0.049492    -7.291291     -6.768869       0.033358       0.000428
 1026   0.049502    -7.310357     -6.790451       0.033358       0.000428
 1027   0.049511    -7.329978     -6.812685       0.033359       0.000428
 1028   0.049498    -7.349771     -6.835002       0.033359       0.000428
 1029   0.049504    -7.369333     -6.856827       0.033360       0.000428
 1030   0.049491    -7.388314     -6.877663       0.033361       0.000428
 1031   0.049480    -7.406461     -6.897159       0.033361       0.000428
 1032   0.049467    -7.423608     -6.915139       0.033362       0.000428
 1033   0.049469    -7.439785     -6.931737       0.033362       0.000428
 1034   0.049460    -7.455197     -6.947315       0.033363       0.000428
 1035   0.049452    -7.470117     -6.962301       0.033363       0.000428
 1036   0.049446    -7.484756     -6.976992       0.033364       0.000428
 1037   0.049437    -7.499216     -6.991500       0.033364       0.000428
 1038   0.049455    -7.513508     -7.005808       0.033365       0.000428
 1039   0.049448    -7.527641     -7.019909       0.033365       0.000428
 1040   0.049434    -7.541671     -7.033877       0.033366       0.000428
 1041   0.049425    -7.555705     -7.047865       0.033366       0.000428
 1042   0.049415    -7.569873     -7.062054       0.033367       0.000428
 1043   0.049407    -7.584284     -7.076596       0.033367       0.000428
 1044   0.049399    -7.599018     -7.091592       0.033368       0.000428
 1045   0.049397    -7.614143     -7.107124       0.033368       0.000428
 1046   0.049387    -7.629684     -7.123213       0.033369       0.000428
 1047   0.049408    -7.645638     -7.139853       0.033369       0.000428
 1048   0.049415    -7.662013     -7.157047       0.033370       0.000428
 1049   0.049411    -7.678791     -7.174762       0.033370       0.000428
 1050   0.049400    -7.695927     -7.192916       0.033370       0.000428
 1051   0.049392    -7.713316     -7.211336       0.033371       0.000428
 1052   0.049384    -7.730771     -7.229730       0.033371       0.000428
 1053   0.049373    -7.748016     -7.247685       0.033371       0.000428
 1054   0.049362    -7.764716     -7.264720       0.033371       0.000428

---------------------- Local Time Stepping Summary ----------------------
MG level: 0 -> Min. DT: 0.000492718. Max. DT: 3.63376. CFL: 10.
MG level: 1 -> Min. DT: 0.000781358. Max. DT: 5.55353. CFL: 8.11871.
MG level: 2 -> Min. DT: 0.00105061. Max. DT: 7.42502. CFL: 6.5465.
-------------------------------------------------------------------------

----------------------- Residual Evolution Summary ----------------------
log10[Maximum residual]: -6.5356.
Maximum residual point 377, located at (0.45701, 0.0601252).
-------------------------------------------------------------------------

 Iter    Time(s)     Res[Rho]     Res[RhoE]      CL(Total)      CD(Total)
 1055   0.049362    -7.780520     -7.280368       0.033372       0.000428
 1056   0.049366    -7.795134     -7.294283       0.033372       0.000428
 1057   0.049356    -7.808385     -7.306323       0.033372       0.000428
 1058   0.049350    -7.820250     -7.316564       0.033372       0.000428
 1059   0.049350    -7.830847     -7.325259       0.033372       0.000428
 1060   0.049352    -7.840396     -7.332760       0.033373       0.000428
 1061   0.049344    -7.849159     -7.339442       0.033373       0.000428
 1062   0.049335    -7.857389     -7.345632       0.033373       0.000428
 1063   0.049327    -7.865303     -7.351590       0.033373       0.000428
 1064   0.049332    -7.873073     -7.357511       0.033374       0.000428
 1065   0.049340    -7.880844     -7.363554       0.033374       0.000428
 1066   0.049332    -7.888749     -7.369866       0.033374       0.000428
 1067   0.049323    -7.896921     -7.376601       0.033374       0.000428
 1068   0.049322    -7.905499     -7.383926       0.033375       0.000428
 1069   0.049318    -7.914630     -7.392023       0.033375       0.000428
 1070   0.049316    -7.924458     -7.401072       0.033375       0.000428
 1071   0.049309    -7.935118     -7.411242       0.033375       0.000428
 1072   0.049302    -7.946717     -7.422668       0.033375       0.000428
 1073   0.049297    -7.959324     -7.435434       0.033376       0.000428
 1074   0.049300    -7.972955     -7.449550       0.033376       0.000428
 1075   0.049293    -7.987557     -7.464936       0.033376       0.000428
 1076   0.049285    -8.003003     -7.481406       0.033376       0.000428
 1077   0.049277    -8.019091     -7.498672       0.033377       0.000428
 1078   0.049271    -8.035555     -7.516356       0.033377       0.000428
 1079   0.049269    -8.052092     -7.534032       0.033377       0.000428
 1080   0.049267    -8.068423     -7.551308       0.033377       0.000428
 1081   0.049264    -8.084260     -7.567793       0.033377       0.000428
 1082   0.049257    -8.099373     -7.583202       0.033377       0.000428
 1083   0.049248    -8.113670     -7.597459       0.033378       0.000428
 1084   0.049243    -8.127152     -7.610614       0.033378       0.000428
 1085   0.049241    -8.139866     -7.622767       0.033378       0.000428
 1086   0.049234    -8.151857     -7.634002       0.033378       0.000428
 1087   0.049226    -8.163182     -7.644413       0.033378       0.000428
 1088   0.049218    -8.173943     -7.654151       0.033378       0.000428
 1089   0.049218    -8.184289     -7.663423       0.033378       0.000428
 1090   0.049210    -8.194398     -7.672467       0.033379       0.000428
 1091   0.049208    -8.204447     -7.681507       0.033379       0.000428
 1092   0.049202    -8.214590     -7.690732       0.033379       0.000428
 1093   0.049194    -8.224976     -7.700319       0.033379       0.000428
 1094   0.049186    -8.235712     -7.710394       0.033379       0.000428

---------------------- Local Time Stepping Summary ----------------------
MG level: 0 -> Min. DT: 0.000492716. Max. DT: 3.63376. CFL: 10.
MG level: 1 -> Min. DT: 0.000781357. Max. DT: 5.55353. CFL: 8.11871.
MG level: 2 -> Min. DT: 0.00105061. Max. DT: 7.42502. CFL: 6.5465.
-------------------------------------------------------------------------

----------------------- Residual Evolution Summary ----------------------
log10[Maximum residual]: -7.09174.
Maximum residual point 970, located at (0.46628, 0.113467).
-------------------------------------------------------------------------

 Iter    Time(s)     Res[Rho]     Res[RhoE]      CL(Total)      CD(Total)
 1095   0.049180    -8.246895     -7.721073       0.033379       0.000428
 1096   0.049175    -8.258611     -7.732461       0.033380       0.000428
 1097   0.049170    -8.270939     -7.744654       0.033380       0.000428
 1098   0.049162    -8.283940     -7.757727       0.033380       0.000428
 1099   0.049154    -8.297652     -7.771726       0.033380       0.000428
 1100   0.049161    -8.312074     -7.786644       0.033380       0.000428
 1101   0.049167    -8.327168     -7.802425       0.033380       0.000428
 1102   0.049165    -8.342853     -7.818953       0.033380       0.000428
 1103   0.049159    -8.359003     -7.836052       0.033380       0.000428
 1104   0.049153    -8.375452     -7.853492       0.033381       0.000428
 1105   0.049161    -8.392002     -7.871000       0.033381       0.000428
 1106   0.049164    -8.408438     -7.888281       0.033381       0.000428
 1107   0.049163    -8.424546     -7.905051       0.033381       0.000428
 1108   0.049155    -8.440138     -7.921071       0.033381       0.000428
 1109   0.049153    -8.455070     -7.936167       0.033381       0.000428
 1110   0.049149    -8.469259     -7.950255       0.033381       0.000428
 1111   0.049144    -8.482684     -7.963339       0.033381       0.000428
 1112   0.049137    -8.495381     -7.975494       0.033381       0.000428
 1113   0.049134    -8.507436     -7.986860       0.033381       0.000428
 1114   0.049127    -8.518970     -7.997612       0.033382       0.000428
 1115   0.049120    -8.530123     -8.007940       0.033382       0.000428
 1116   0.049118    -8.541039     -8.018032       0.033382       0.000428
 1117   0.049120    -8.551856     -8.028062       0.033382       0.000428
 1118   0.049123    -8.562696     -8.038183       0.033382       0.000428
 1119   0.049125    -8.573697     -8.048560       0.033382       0.000428
 1120   0.049171    -8.584959     -8.059313       0.033382       0.000428
 1121   0.049210    -8.596571     -8.070550       0.033382       0.000428
 1122   0.049233    -8.608606     -8.082357       0.033382       0.000428
 1123   0.049240    -8.621124     -8.094805       0.033382       0.000428
 1124   0.049247    -8.634164     -8.107942       0.033382       0.000428
 1125   0.049248    -8.647749     -8.121788       0.033382       0.000428
 1126   0.049241    -8.661877     -8.136339       0.033382       0.000428
 1127   0.049234    -8.676522     -8.151554       0.033383       0.000428
 1128   0.049250    -8.691632     -8.167358       0.033383       0.000428
 1129   0.049257    -8.707126     -8.183641       0.033383       0.000428
 1130   0.049261    -8.722900     -8.200256       0.033383       0.000428
 1131   0.049265    -8.738826     -8.217030       0.033383       0.000428
 1132   0.049260    -8.754763     -8.233773       0.033383       0.000428
 1133   0.049253    -8.770569     -8.250293       0.033383       0.000428
 1134   0.049247    -8.786106     -8.266414       0.033383       0.000428

---------------------- Local Time Stepping Summary ----------------------
MG level: 0 -> Min. DT: 0.000492715. Max. DT: 3.63376. CFL: 10.
MG level: 1 -> Min. DT: 0.000781357. Max. DT: 5.55353. CFL: 8.11871.
MG level: 2 -> Min. DT: 0.00105061. Max. DT: 7.42502. CFL: 6.5465.
-------------------------------------------------------------------------

----------------------- Residual Evolution Summary ----------------------
log10[Maximum residual]: -7.52116.
Maximum residual point 362, located at (0.488644, 0.0596358).
-------------------------------------------------------------------------

 Iter    Time(s)     Res[Rho]     Res[RhoE]      CL(Total)      CD(Total)
 1135   0.049242    -8.801260     -8.281993       0.033383       0.000428
 1136   0.049238    -8.815948     -8.296932       0.033383       0.000428
 1137   0.049239    -8.830126     -8.311192       0.033383       0.000428
 1138   0.049232    -8.843791     -8.324788       0.033383       0.000428
 1139   0.049226    -8.856983     -8.337788       0.033383       0.000428
 1140   0.049221    -8.869771     -8.350299       0.033383       0.000428
 1141   0.049220    -8.882250     -8.362455       0.033383       0.000428
 1142   0.049219    -8.894527     -8.374401       0.033383       0.000428
 1143   0.049216    -8.906718     -8.386287       0.033383       0.000428
 1144   0.049213    -8.918935     -8.398259       0.033383       0.000428
 1145   0.049216    -8.931286     -8.410453       0.033383       0.000428

-------------------------- File Output Summary --------------------------
Writing comma-separated values (CSV) surface files.
Merging connectivities in the Master node.
Merging coordinates in the Master node.
Merging solution in the Master node.
Writing SU2 native restart file.
Writing Paraview ASCII volume solution file.
Writing Paraview ASCII surface solution file.
Writing the forces breakdown file.
-------------------------------------------------------------------------

 1146   0.049466    -8.943869     -8.422991       0.033383       0.000428
 1147   0.049461    -8.956771     -8.435978       0.033383       0.000428
 1148   0.049455    -8.970060     -8.449499       0.033384       0.000428
 1149   0.049451    -8.983790     -8.463614       0.033384       0.000428
 1150   0.049448    -8.997987     -8.478352       0.033384       0.000428
 1151   0.049441    -9.012658     -8.493713       0.033384       0.000428
 1152   0.049435    -9.027780     -8.509658       0.033384       0.000428
 1153   0.049430    -9.043305     -8.526116       0.033384       0.000428
 1154   0.049424    -9.059161     -8.542980       0.033384       0.000428
 1155   0.049417    -9.075254     -8.560117       0.033384       0.000428
 1156   0.049413    -9.091471     -8.577372       0.033384       0.000428
 1157   0.049407    -9.107695     -8.594578       0.033384       0.000428
 1158   0.049401    -9.123806     -8.611578       0.033384       0.000428
 1159   0.049395    -9.139696     -8.628231       0.033384       0.000428
 1160   0.049388    -9.155281     -8.644432       0.033384       0.000428
 1161   0.049386    -9.170507     -8.660122       0.033384       0.000428
 1162   0.049381    -9.185353     -8.675291       0.033384       0.000428
 1163   0.049376    -9.199836     -8.689980       0.033384       0.000428
 1164   0.049370    -9.214001     -8.704265       0.033384       0.000428
 1165   0.049369    -9.227917     -8.718247       0.033384       0.000428
 1166   0.049372    -9.241661     -8.732039       0.033384       0.000428
 1167   0.049366    -9.255319     -8.745757       0.033384       0.000428
 1168   0.049360    -9.268979     -8.759519       0.033384       0.000428
 1169   0.049356    -9.282729     -8.773440       0.033384       0.000428
 1170   0.049352    -9.296658     -8.787635       0.033384       0.000428
 1171   0.049349    -9.310851     -8.802216       0.033384       0.000428
 1172   0.049342    -9.325384     -8.817277       0.033384       0.000428
 1173   0.049336    -9.340318     -8.832889       0.033384       0.000428
 1174   0.049339    -9.355685     -8.849088       0.033384       0.000428

---------------------- Local Time Stepping Summary ----------------------
MG level: 0 -> Min. DT: 0.000492714. Max. DT: 3.63376. CFL: 10.
MG level: 1 -> Min. DT: 0.000781357. Max. DT: 5.55353. CFL: 8.11871.
MG level: 2 -> Min. DT: 0.00105061. Max. DT: 7.42502. CFL: 6.5465.
-------------------------------------------------------------------------

----------------------- Residual Evolution Summary ----------------------
log10[Maximum residual]: -8.21677.
Maximum residual point 1311, located at (0.442529, 0.158799).
-------------------------------------------------------------------------

 Iter    Time(s)     Res[Rho]     Res[RhoE]      CL(Total)      CD(Total)
 1175   0.049342    -9.371492     -8.865867       0.033384       0.000428
 1176   0.049338    -9.387708     -8.883169       0.033384       0.000428
 1177   0.049338    -9.404265     -8.900889       0.033384       0.000428
 1178   0.049336    -9.421066     -8.918877       0.033384       0.000428
 1179   0.049331    -9.437987     -8.936955       0.033384       0.000428
 1180   0.049329    -9.454892     -8.954925       0.033384       0.000428
 1181   0.049324    -9.471638     -8.972590       0.033384       0.000428
 1182   0.049321    -9.488082     -8.989753       0.033384       0.000428
 1183   0.049319    -9.504057     -9.006181       0.033384       0.000428
 1184   0.049318    -9.519267     -9.021438       0.033384       0.000428
 1185   0.049317    -9.532852     -9.034205       0.033384       0.000428
 1186   0.049319    -9.543286     -9.042367       0.033384       0.000428
 1187   0.049316    -9.556470     -9.055677       0.033384       0.000428
 1188   0.049311    -9.571393     -9.071769       0.033384       0.000428
 1189   0.049309    -9.586465     -9.087518       0.033384       0.000428
 1190   0.049306    -9.600833     -9.101851       0.033384       0.000428
 1191   0.049301    -9.613590     -9.114001       0.033384       0.000428
 1192   0.049301    -9.626330     -9.126538       0.033384       0.000428
 1193   0.049302    -9.640585     -9.141304       0.033384       0.000428
 1194   0.049301    -9.650948     -9.149419       0.033384       0.000428
 1195   0.049295    -9.660534     -9.159335       0.033384       0.000428
 1196   0.049290    -9.667692     -9.164628       0.033384       0.000428
 1197   0.049285    -9.692262     -9.196797       0.033384       0.000428
 1198   0.049293    -9.707790     -9.211794       0.033384       0.000428
 1199   0.049295    -9.719437     -9.221393       0.033384       0.000428
 1200   0.049292    -9.743651     -9.250499       0.033384       0.000428
 1201   0.049289    -9.757262     -9.262133       0.033384       0.000428
 1202   0.049290    -9.765715     -9.265974       0.033384       0.000428
 1203   0.049285    -9.771910     -9.268203       0.033384       0.000428
 1204   0.049280    -9.766639     -9.254706       0.033384       0.000428
 1205   0.049277    -9.774875     -9.262448       0.033384       0.000428
 1206   0.049281    -9.788362     -9.278248       0.033384       0.000428
 1207   0.049278    -9.807346     -9.301371       0.033384       0.000428
 1208   0.049275    -9.832237     -9.332255       0.033384       0.000428
 1209   0.049270    -9.856027     -9.359864       0.033384       0.000428
 1210   0.049266    -9.875381     -9.379626       0.033384       0.000428
 1211   0.049262    -9.888722     -9.390670       0.033384       0.000428
 1212   0.049260    -9.893126     -9.389081       0.033384       0.000428
 1213   0.049261    -9.891097     -9.379628       0.033384       0.000428
 1214   0.049255    -9.890151     -9.373509       0.033384       0.000428

---------------------- Local Time Stepping Summary ----------------------
MG level: 0 -> Min. DT: 0.000492714. Max. DT: 3.63376. CFL: 10.
MG level: 1 -> Min. DT: 0.000781357. Max. DT: 5.55353. CFL: 8.11871.
MG level: 2 -> Min. DT: 0.00105061. Max. DT: 7.42502. CFL: 6.5465.
-------------------------------------------------------------------------

----------------------- Residual Evolution Summary ----------------------
log10[Maximum residual]: -8.63254.
Maximum residual point 377, located at (0.45701, 0.0601252).
-------------------------------------------------------------------------

 Iter    Time(s)     Res[Rho]     Res[RhoE]      CL(Total)      CD(Total)
 1215   0.049251    -9.893359     -9.374364       0.033384       0.000428
 1216   0.049249    -9.901777     -9.382867       0.033384       0.000428
 1217   0.049246    -9.915796     -9.399140       0.033384       0.000428
 1218   0.049243    -9.934423     -9.421547       0.033384       0.000428
 1219   0.049239    -9.955923     -9.447386       0.033384       0.000428
 1220   0.049236    -9.978061     -9.473248       0.033384       0.000428
 1221   0.049266    -9.998360     -9.495578       0.033384       0.000428
 1222   0.049313   -10.014910     -9.512006       0.033384       0.000428

-------------------------- File Output Summary --------------------------
Writing comma-separated values (CSV) surface files.
Merging connectivities in the Master node.
Merging coordinates in the Master node.
Merging solution in the Master node.
Writing SU2 native restart file.
Writing Paraview ASCII volume solution file.
Writing Paraview ASCII surface solution file.
Writing the forces breakdown file.
-------------------------------------------------------------------------

History file, closed.

------------------------- Solver Postprocessing -------------------------
Deleted CNumerics container.
Deleted CIntegration container.
Deleted CSolver container.
Deleted CIteration container.
Deleted CInterpolator container.
Deleted CTransfer container.
Deleted CGeometry container.
Deleted CFreeFormDefBox class.
Deleted CSurfaceMovement class.
Deleted CVolumetricMovement class.
Deleted CConfig container.
Deleted COutput class.
-------------------------------------------------------------------------

Completed in 16.255837 seconds on 1 core.

------------------------- Exit Success (SU2_CFD) ------------------------

