
-------------------------------------------------------------------------
|    ___ _   _ ___                                                      |
|   / __| | | |_  )   Release 5.0.0  "Raven"                            |
|   \__ \ |_| |/ /                                                      |
|   |___/\___//___|   Suite (Computational Fluid Dynamics Code)         |
|                                                                       |
-------------------------------------------------------------------------
| SU2 Original Developers: Dr. Francisco D. Palacios.                   |
|                          Dr. Thomas D. Economon.                      |
-------------------------------------------------------------------------
| SU2 Developers:                                                       |
| - Prof. Juan J. Alonso's group at Stanford University.                |
| - Prof. Piero Colonna's group at Delft University of Technology.      |
| - Prof. Nicolas R. Gauger's group at Kaiserslautern U. of Technology. |
| - Prof. Alberto Guardone's group at Polytechnic University of Milan.  |
| - Prof. Rafael Palacios' group at Imperial College London.            |
| - Prof. Edwin van der Weide's group at the University of Twente.      |
| - Prof. Vincent Terrapon's group at the University of Liege.          |
-------------------------------------------------------------------------
| Copyright (C) 2012-2017 SU2, the open-source CFD code.                |
|                                                                       |
| SU2 is free software; you can redistribute it and/or                  |
| modify it under the terms of the GNU Lesser General Public            |
| License as published by the Free Software Foundation; either          |
| version 2.1 of the License, or (at your option) any later version.    |
|                                                                       |
| SU2 is distributed in the hope that it will be useful,                |
| but WITHOUT ANY WARRANTY; without even the implied warranty of        |
| MERCHANTABILITY or FITNESS FOR A PARTICULAR PURPOSE. See the GNU      |
| Lesser General Public License for more details.                       |
|                                                                       |
| You should have received a copy of the GNU Lesser General Public      |
| License along with SU2. If not, see <http://www.gnu.org/licenses/>.   |
-------------------------------------------------------------------------

------------------------ Physical Case Definition -----------------------
Compressible Euler equations.
Mach number: 0.8.
Angle of attack (AoA): 1.25 deg, and angle of sideslip (AoS): 0 deg.
No restart solution, use the values at infinity (freestream).
Non-Dimensional simulation (P=1.0, Rho=1.0, T=1.0 at the farfield).
The reference length/area (force coefficient) is 1.
The reference length (moment computation) is 1.
Reference origin (moment computation) is (0.25, 0, 0).
Surface(s) where the force coefficients are evaluated: airfoil.
Surface(s) plotted in the output file: airfoil.
Surface(s) affected by the design variables: airfoil.
Input mesh file name: mesh_NACA0012_inv.su2

---------------------- Space Numerical Integration ----------------------
Jameson-Schmidt-Turkel scheme for the flow inviscid terms.
JST viscous coefficients (1st, 2nd & 4th): 0.15, 0.5, 0.02.
The method includes a grid stretching correction (p = 0.3).
Second order integration.
Gradient computation using Green-Gauss theorem.

---------------------- Time Numerical Integration -----------------------
Local time stepping (steady state simulation).
Euler implicit method for the flow equations.
V Multigrid Cycle, with 2 multigrid levels.
Damping factor for the residual restriction: 1.
Damping factor for the correction prolongation: 1.
No CFL adaptation.
Multigrid Level:                       0     1     2
Courant-Friedrichs-Lewy number:       10
MG PreSmooth coefficients:             1     2     3
MG PostSmooth coefficients:            0     0     0
MG CorrecSmooth coefficients:          0     0     0

------------------------- Convergence Criteria --------------------------
Maximum number of iterations: 1000.
Reduce the density residual 6 orders of magnitude.
The minimum bound for the density residual is 10^(-13).
Start convergence criteria at iteration 10.

-------------------------- Output Information ---------------------------
Writing a flow solution every 250 iterations.
Writing the convergence history every 1 iterations.
The output file format is Tecplot ASCII (.dat).
Convergence history file name: history_direct.
Forces breakdown file name: forces_breakdown.dat.
Surface flow coefficients file name: surface_flow.
Flow variables file name: flow.
Restart flow file name: restart_flow.dat.

------------------- Config File Boundary Information --------------------
Euler wall boundary marker(s): airfoil.
Far-field boundary marker(s): farfield.

---------------------- Read Grid File Information -----------------------
Two dimensional problem.
5233 points before parallel partitioning.
Performing linear partitioning of the grid nodes.
10216 interior elements before parallel partitioning.
Calling the partitioning functions.
Building the graph adjacency structure.
Distributing elements across all ranks.
2 surface markers.
200 boundary elements in index 0 (Marker = airfoil).
50 boundary elements in index 1 (Marker = farfield).
Calling ParMETIS...
Finished partitioning using ParMETIS (547 edge cuts).
Communicating partition data and creating halo layers.
10763 interior elements including halo cells. 
10763 triangles.
5796 vertices including ghost points. 
Establishing MPI communication patterns.

------------------------- Geometry Preprocessing ------------------------
Setting point connectivity.
Renumbering points (Reverse Cuthill McKee Ordering).
Recomputing point connectivity.
Setting element connectivity.
Checking the numerical grid orientation.
Identifying edges and vertices.
Computing centers of gravity.
Setting the control volume structure.
Area of the computational grid: 1.3e+03.
Searching for the closest normal neighbors to the surfaces.
Compute the surface curvature.
Max K: 7.84e+03. Mean K: 34.8. Standard deviation K: 494.
Checking for periodicity.
Setting the multigrid structure.
MG level: 0 -> CVs: 5796. Agglomeration rate 1/1.00. CFL 10.
MG level: 1 -> CVs: 1800. Agglomeration rate 1/3.22. CFL 8.36.
MG level: 2 -> CVs: 626. Agglomeration rate 1/2.88. CFL 7.39.
Computing wall distances.
Wetted area = 2.04 m.
Area projection in the x-plane = 0.12 m, y-plane = 1 m.

------------------------- Driver information --------------------------
A Fluid driver has been instantiated.

------------------------ Iteration Preprocessing ------------------------
Zone 1: Euler/Navier-Stokes/RANS flow iteration.

------------------------- Solver Preprocessing --------------------------
Inviscid flow: Computing density based on free-stream
temperature and pressure using the ideal gas law.
Force coefficients computed using free-stream values.
-- Input conditions:
Fluid Model: STANDARD_AIR 
Specific gas constant: 287.058 N.m/kg.K.
Specific gas constant (non-dim): 1
Specific Heat Ratio: 1.4
Free-stream static pressure: 101325 Pa.
Free-stream total pressure: 154454 Pa.
Free-stream temperature: 288.15 K.
Free-stream density: 1.22498 kg/m^3.
Free-stream velocity: (272.173, 5.93883) m/s. Magnitude: 272.238 m/s (529.186 KTS).
Free-stream total energy per unit mass: 243846 m^2/s^2.
-- Reference values:
Reference specific gas constant: 287.058 N.m/kg.K.
Reference pressure: 101325 Pa.
Reference temperature: 288.15 K.
Reference density: 1.22498 kg/m^3.
Reference velocity: 287.603 m/s.
Reference energy per unit mass: 82715.8 m^2/s^2.
-- Resulting non-dimensional state:
Mach number (non-dim): 0.8
Specific gas constant (non-dim): 1
Free-stream temperature (non-dim): 1
Free-stream pressure (non-dim): 1
Free-stream density (non-dim): 1
Free-stream velocity (non-dim): (0.946348, 0.0206494). Magnitude: 0.946573
Free-stream total energy per unit mass (non-dim): 2.948

Initialize Jacobian structure (Euler). MG level: 0.
Initialize Jacobian structure (Euler). MG level: 1.
Initialize Jacobian structure (Euler). MG level: 2.

----------------- Integration and Numerics Preprocessing ----------------
Integration Preprocessing.
Numerics Preprocessing.

------------------------------ Begin Solver -----------------------------

---------------------- Local Time Stepping Summary ----------------------
MG level: 0 -> Min. DT: 0.000444693. Max. DT: 3.62283. CFL: 10.
MG level: 1 -> Min. DT: 0.000732724. Max. DT: 5.70588. CFL: 8.35917.
MG level: 2 -> Min. DT: 0.00149282. Max. DT: 8.30088. CFL: 7.39444.
-------------------------------------------------------------------------

----------------------- Residual Evolution Summary ----------------------
log10[Maximum residual]: -2.57874.
Maximum residual point 97, located at (0.00056, -0.00417316).
-------------------------------------------------------------------------

 Iter    Time(s)     Res[Rho]     Res[RhoE]      CL(Total)      CD(Total)
    0   0.018782    -3.585391     -2.989014       0.093062       0.167316
    1   0.018327    -3.620075     -3.000798       0.078902       0.091846
    2   0.017642    -3.706734     -3.101593       0.090589       0.077969
    3   0.017386    -3.656828     -3.049266       0.109713       0.073442
    4   0.017242    -3.596390     -2.987379       0.123943       0.065428
    5   0.017164    -3.550823     -2.943862       0.134335       0.058077
    6   0.016999    -3.515973     -2.910958       0.141823       0.052554
    7   0.016934    -3.494590     -2.890199       0.147590       0.049279
    8   0.016846    -3.504691     -2.902463       0.154776       0.044834
    9   0.016787    -3.520230     -2.918865       0.165784       0.039969
   10   0.017073    -3.533426     -2.931022       0.177996       0.036085
   11   0.017280    -3.542258     -2.936654       0.189629       0.033526
   12   0.017306    -3.546637     -2.936568       0.199231       0.031884
   13   0.017228    -3.553135     -2.939292       0.207466       0.030521
   14   0.017197    -3.563122     -2.946620       0.214742       0.029375
   15   0.017146    -3.577399     -2.959168       0.221228       0.028513
   16   0.017105    -3.594815     -2.975283       0.226748       0.027874
   17   0.017175    -3.612625     -2.991604       0.231157       0.027390
   18   0.017166    -3.628540     -3.005423       0.234654       0.027082
   19   0.017122    -3.641022     -3.015171       0.237564       0.026951
   20   0.017087    -3.649794     -3.020901       0.240134       0.026943
   21   0.017102    -3.655640     -3.023849       0.242553       0.027008
   22   0.017094    -3.660116     -3.025921       0.245023       0.027114
   23   0.017128    -3.664813     -3.028871       0.247740       0.027231
   24   0.017102    -3.671053     -3.034012       0.250835       0.027318
   25   0.017062    -3.680174     -3.042621       0.254363       0.027325
   26   0.017056    -3.693881     -3.056370       0.258323       0.027192
   27   0.017027    -3.715420     -3.078628       0.262736       0.026860
   28   0.017012    -3.752493     -3.117666       0.267705       0.026247
   29   0.017003    -3.826287     -3.196809       0.273913       0.024911
   30   0.017012    -3.999647     -3.390398       0.279511       0.022895
   31   0.016992    -4.175151     -3.604266       0.284981       0.022716
   32   0.016979    -4.152184     -3.572670       0.289419       0.023044
   33   0.017179    -4.128537     -3.539681       0.292464       0.022586
   34   0.017151    -4.135889     -3.547736       0.295424       0.022281
   35   0.017132    -4.133225     -3.544787       0.298525       0.022185
   36   0.017110    -4.128504     -3.539501       0.301343       0.022005
   37   0.017104    -4.130928     -3.543419       0.303792       0.021768
   38   0.017109    -4.138204     -3.552252       0.305930       0.021568
   39   0.017095    -4.146722     -3.560897       0.307801       0.021405

---------------------- Local Time Stepping Summary ----------------------
MG level: 0 -> Min. DT: 0.000495619. Max. DT: 3.62297. CFL: 10.
MG level: 1 -> Min. DT: 0.000794565. Max. DT: 5.70325. CFL: 8.35917.
MG level: 2 -> Min. DT: 0.00157016. Max. DT: 8.29797. CFL: 7.39444.
-------------------------------------------------------------------------

----------------------- Residual Evolution Summary ----------------------
log10[Maximum residual]: -3.0825.
Maximum residual point 1183, located at (0.598659, 0.135723).
-------------------------------------------------------------------------

 Iter    Time(s)     Res[Rho]     Res[RhoE]      CL(Total)      CD(Total)
   40   0.017065    -4.155877     -3.569488       0.309414       0.021269
   41   0.017061    -4.165468     -3.578383       0.310809       0.021173
   42   0.017061    -4.174974     -3.586812       0.312049       0.021114
   43   0.017105    -4.185015     -3.595437       0.313177       0.021082
   44   0.017290    -4.196373     -3.605308       0.314220       0.021073
   45   0.017362    -4.208547     -3.616106       0.315199       0.021085
   46   0.017336    -4.222241     -3.628707       0.316138       0.021111
   47   0.017337    -4.238152     -3.643976       0.317067       0.021149
   48   0.017367    -4.256083     -3.661820       0.318010       0.021194
   49   0.017367    -4.276032     -3.682256       0.318973       0.021241
   50   0.017347    -4.298492     -3.705845       0.319943       0.021284
   51   0.017333    -4.324386     -3.733458       0.320908       0.021319
   52   0.017317    -4.354469     -3.765863       0.321856       0.021342
   53   0.017305    -4.388743     -3.802883       0.322766       0.021354
   54   0.017290    -4.425966     -3.842845       0.323615       0.021356
   55   0.017306    -4.463644     -3.882741       0.324393       0.021350
   56   0.017310    -4.500654     -3.921063       0.325098       0.021342
   57   0.017287    -4.537006     -3.957708       0.325736       0.021336
   58   0.017282    -4.573028     -3.993193       0.326318       0.021334
   59   0.017268    -4.607606     -4.026649       0.326851       0.021338
   60   0.017254    -4.640582     -4.058396       0.327347       0.021349
   61   0.017247    -4.672645     -4.089466       0.327811       0.021366
   62   0.017238    -4.705211     -4.121515       0.328250       0.021387
   63   0.017241    -4.739006     -4.155405       0.328664       0.021409
   64   0.017229    -4.774807     -4.191916       0.329053       0.021433
   65   0.017208    -4.812800     -4.231186       0.329421       0.021455
   66   0.017206    -4.852879     -4.273036       0.329768       0.021476
   67   0.017187    -4.895245     -4.317554       0.330092       0.021495
   68   0.017229    -4.939479     -4.364268       0.330393       0.021512
   69   0.017257    -4.985033     -4.412346       0.330671       0.021527
   70   0.017263    -5.030782     -4.460776       0.330928       0.021540
   71   0.017256    -5.075964     -4.508812       0.331164       0.021553
   72   0.017241    -5.120461     -4.556258       0.331380       0.021565
   73   0.017227    -5.164548     -4.603408       0.331577       0.021576
   74   0.017219    -5.207741     -4.649926       0.331755       0.021588
   75   0.017210    -5.249020     -4.694433       0.331915       0.021599
   76   0.017198    -5.288290     -4.736815       0.332059       0.021609
   77   0.017189    -5.325846     -4.777508       0.332187       0.021620
   78   0.017178    -5.361815     -4.816605       0.332298       0.021629
   79   0.017170    -5.396108     -4.853760       0.332394       0.021637

---------------------- Local Time Stepping Summary ----------------------
MG level: 0 -> Min. DT: 0.000494041. Max. DT: 3.62294. CFL: 10.
MG level: 1 -> Min. DT: 0.000793213. Max. DT: 5.70311. CFL: 8.35917.
MG level: 2 -> Min. DT: 0.0015626. Max. DT: 8.29775. CFL: 7.39444.
-------------------------------------------------------------------------

----------------------- Residual Evolution Summary ----------------------
log10[Maximum residual]: -4.24668.
Maximum residual point 815, located at (0.633242, 0.0899142).
-------------------------------------------------------------------------

 Iter    Time(s)     Res[Rho]     Res[RhoE]      CL(Total)      CD(Total)
   80   0.017169    -5.428983     -4.889214       0.332475       0.021645
   81   0.017160    -5.460281     -4.922591       0.332540       0.021651
   82   0.017152    -5.488646     -4.952014       0.332592       0.021656
   83   0.017145    -5.514695     -4.978506       0.332630       0.021660
   84   0.017134    -5.539149     -5.003228       0.332653       0.021662
   85   0.017127    -5.562101     -5.026290       0.332662       0.021663
   86   0.017113    -5.583774     -5.047962       0.332657       0.021663
   87   0.017103    -5.604984     -5.069295       0.332638       0.021662
   88   0.017106    -5.626745     -5.091558       0.332606       0.021660
   89   0.017099    -5.650319     -5.116323       0.332562       0.021658
   90   0.017103    -5.676158     -5.143976       0.332505       0.021655
   91   0.017100    -5.704239     -5.174334       0.332438       0.021651
   92   0.017097    -5.733902     -5.206427       0.332361       0.021646
   93   0.017100    -5.763857     -5.238466       0.332277       0.021642
   94   0.017087    -5.791356     -5.267096       0.332186       0.021637
   95   0.017081    -5.816528     -5.292967       0.332086       0.021631
   96   0.017074    -5.844052     -5.322163       0.331978       0.021626
   97   0.017089    -5.866373     -5.344922       0.331869       0.021620
   98   0.017163    -5.871966     -5.345789       0.331756       0.021613
   99   0.017223    -5.884280     -5.358972       0.331636       0.021607
  100   0.017297    -5.893247     -5.368548       0.331517       0.021601
  101   0.017382    -5.886934     -5.356652       0.331398       0.021595
  102   0.017449    -5.885152     -5.353036       0.331275       0.021589
  103   0.017520    -5.887453     -5.356533       0.331154       0.021583
  104   0.017596    -5.882713     -5.349573       0.331033       0.021577
  105   0.017677    -5.878659     -5.343850       0.330912       0.021571
  106   0.017732    -5.877686     -5.343085       0.330793       0.021564
  107   0.017805    -5.874390     -5.338898       0.330675       0.021558
  108   0.018002    -5.870884     -5.334351       0.330558       0.021551
  109   0.018356    -5.868717     -5.331850       0.330444       0.021545
  110   0.018515    -5.866258     -5.328880       0.330331       0.021539
  111   0.018734    -5.864083     -5.326221       0.330220       0.021533
  112   0.018956    -5.862871     -5.324849       0.330112       0.021527
  113   0.019520    -5.862188     -5.324062       0.330005       0.021521
  114   0.019841    -5.862188     -5.324044       0.329900       0.021515
  115   0.019911    -5.863063     -5.325044       0.329798       0.021509
  116   0.019970    -5.864711     -5.326887       0.329697       0.021504
  117   0.020050    -5.867190     -5.329646       0.329598       0.021498
  118   0.020141    -5.870461     -5.333255       0.329501       0.021493
  119   0.020210    -5.874520     -5.337701       0.329407       0.021488

---------------------- Local Time Stepping Summary ----------------------
MG level: 0 -> Min. DT: 0.000492437. Max. DT: 3.62294. CFL: 10.
MG level: 1 -> Min. DT: 0.000790655. Max. DT: 5.70313. CFL: 8.35917.
MG level: 2 -> Min. DT: 0.00156566. Max. DT: 8.29778. CFL: 7.39444.
-------------------------------------------------------------------------

----------------------- Residual Evolution Summary ----------------------
log10[Maximum residual]: -4.60959.
Maximum residual point 1182, located at (0.630235, 0.131859).
-------------------------------------------------------------------------

 Iter    Time(s)     Res[Rho]     Res[RhoE]      CL(Total)      CD(Total)
  120   0.020219    -5.879393     -5.343009       0.329314       0.021483
  121   0.020245    -5.885025     -5.349093       0.329223       0.021478
  122   0.020272    -5.891396     -5.355929       0.329133       0.021473
  123   0.020310    -5.898463     -5.363464       0.329046       0.021469
  124   0.020342    -5.906161     -5.371615       0.328961       0.021464
  125   0.020366    -5.914433     -5.380317       0.328877       0.021459
  126   0.020411    -5.923214     -5.389496       0.328795       0.021455
  127   0.020440    -5.932433     -5.399074       0.328716       0.021451
  128   0.020452    -5.942042     -5.409000       0.328637       0.021446
  129   0.020467    -5.952500     -5.419737       0.328561       0.021442
  130   0.020485    -5.963295     -5.430991       0.328487       0.021438
  131   0.020507    -5.973529     -5.441630       0.328414       0.021434
  132   0.020513    -5.982968     -5.451219       0.328343       0.021430
  133   0.020561    -5.991965     -5.460196       0.328275       0.021427
  134   0.020609    -6.000844     -5.468981       0.328208       0.021423
  135   0.020651    -6.009864     -5.477904       0.328143       0.021419
  136   0.020689    -6.019197     -5.487178       0.328079       0.021416
  137   0.020717    -6.029033     -5.497003       0.328018       0.021412
  138   0.020771    -6.039259     -5.507302       0.327958       0.021409
  139   0.020804    -6.049939     -5.518122       0.327900       0.021406
  140   0.020845    -6.060824     -5.529092       0.327844       0.021403
  141   0.020873    -6.071863     -5.540152       0.327789       0.021400
  142   0.020902    -6.083002     -5.551251       0.327737       0.021397
  143   0.020933    -6.094182     -5.562333       0.327686       0.021394
  144   0.020964    -6.105357     -5.573366       0.327636       0.021391
  145   0.020997    -6.116480     -5.584302       0.327589       0.021388
  146   0.021035    -6.127521     -5.595118       0.327543       0.021386
  147   0.021066    -6.138461     -5.605806       0.327498       0.021383
  148   0.021096    -6.149298     -5.616372       0.327455       0.021381
  149   0.021129    -6.160043     -5.626833       0.327414       0.021378
  150   0.021204    -6.170723     -5.637230       0.327375       0.021376
  151   0.021247    -6.181378     -5.647610       0.327337       0.021374
  152   0.021279    -6.192046     -5.658022       0.327301       0.021372
  153   0.021307    -6.202777     -5.668522       0.327266       0.021370
  154   0.021331    -6.213622     -5.679162       0.327232       0.021368
  155   0.021353    -6.224626     -5.689991       0.327200       0.021366
  156   0.021380    -6.235832     -5.701050       0.327170       0.021364
  157   0.021406    -6.247270     -5.712365       0.327141       0.021363
  158   0.021425    -6.258964     -5.723956       0.327113       0.021361
  159   0.021444    -6.270936     -5.735841       0.327087       0.021360

---------------------- Local Time Stepping Summary ----------------------
MG level: 0 -> Min. DT: 0.000491896. Max. DT: 3.62294. CFL: 10.
MG level: 1 -> Min. DT: 0.000789859. Max. DT: 5.70315. CFL: 8.35917.
MG level: 2 -> Min. DT: 0.00156567. Max. DT: 8.2978. CFL: 7.39444.
-------------------------------------------------------------------------

----------------------- Residual Evolution Summary ----------------------
log10[Maximum residual]: -4.94475.
Maximum residual point 1182, located at (0.630235, 0.131859).
-------------------------------------------------------------------------

 Iter    Time(s)     Res[Rho]     Res[RhoE]      CL(Total)      CD(Total)
  160   0.021460    -6.283204     -5.748034       0.327062       0.021358
  161   0.021478    -6.295781     -5.760546       0.327038       0.021357
  162   0.021496    -6.308674     -5.773379       0.327016       0.021356
  163   0.021516    -6.321886     -5.786531       0.326995       0.021354
  164   0.021535    -6.335415     -5.799998       0.326975       0.021353
  165   0.021553    -6.349259     -5.813773       0.326955       0.021352
  166   0.021571    -6.363417     -5.827855       0.326938       0.021351
  167   0.021589    -6.377888     -5.842241       0.326921       0.021350
  168   0.021606    -6.392672     -5.856930       0.326905       0.021349
  169   0.021627    -6.407769     -5.871922       0.326890       0.021348
  170   0.021645    -6.423181     -5.887219       0.326875       0.021347
  171   0.021666    -6.438911     -5.902824       0.326862       0.021347
  172   0.021684    -6.454959     -5.918736       0.326850       0.021346
  173   0.021704    -6.471325     -5.934954       0.326838       0.021345
  174   0.021727    -6.488009     -5.951478       0.326828       0.021345
  175   0.021755    -6.505010     -5.968307       0.326818       0.021344
  176   0.021774    -6.522329     -5.985440       0.326808       0.021344
  177   0.021802    -6.539964     -6.002875       0.326800       0.021343
  178   0.021821    -6.557912     -6.020606       0.326792       0.021343
  179   0.021840    -6.576169     -6.038630       0.326784       0.021342
  180   0.021864    -6.594735     -6.056943       0.326778       0.021342
  181   0.021881    -6.613609     -6.075544       0.326771       0.021341
  182   0.021900    -6.632791     -6.094433       0.326766       0.021341
  183   0.021912    -6.652278     -6.113605       0.326761       0.021341
  184   0.021930    -6.672070     -6.133059       0.326756       0.021341
  185   0.021946    -6.692162     -6.152788       0.326752       0.021340
  186   0.021959    -6.712557     -6.172794       0.326748       0.021340
  187   0.021965    -6.733257     -6.193079       0.326745       0.021340
  188   0.021976    -6.754262     -6.213640       0.326742       0.021340
  189   0.021986    -6.775574     -6.234474       0.326739       0.021340
  190   0.022013    -6.797194     -6.255584       0.326737       0.021339
  191   0.022030    -6.819127     -6.276973       0.326735       0.021339
  192   0.022042    -6.841379     -6.298642       0.326734       0.021339
  193   0.022056    -6.863955     -6.320594       0.326732       0.021339
  194   0.022064    -6.886858     -6.342831       0.326731       0.021339
  195   0.022071    -6.910096     -6.365357       0.326731       0.021339
  196   0.022081    -6.933671     -6.388170       0.326730       0.021339
  197   0.022090    -6.957586     -6.411270       0.326730       0.021339
  198   0.022112    -6.981843     -6.434654       0.326730       0.021339
  199   0.022125    -7.006438     -6.458312       0.326730       0.021339

---------------------- Local Time Stepping Summary ----------------------
MG level: 0 -> Min. DT: 0.000491797. Max. DT: 3.62294. CFL: 10.
MG level: 1 -> Min. DT: 0.000789711. Max. DT: 5.70315. CFL: 8.35917.
MG level: 2 -> Min. DT: 0.0015654. Max. DT: 8.2978. CFL: 7.39444.
-------------------------------------------------------------------------

----------------------- Residual Evolution Summary ----------------------
log10[Maximum residual]: -5.76323.
Maximum residual point 1905, located at (0.638752, 0.285678).
-------------------------------------------------------------------------

 Iter    Time(s)     Res[Rho]     Res[RhoE]      CL(Total)      CD(Total)
  200   0.022156    -7.031357     -6.482222       0.326731       0.021339
  201   0.022166    -7.056575     -6.506350       0.326731       0.021339
  202   0.022175    -7.082071     -6.530672       0.326732       0.021339
  203   0.022188    -7.107870     -6.555211       0.326733       0.021339
  204   0.022200    -7.133917     -6.579906       0.326734       0.021339
  205   0.022208    -7.160149     -6.604689       0.326736       0.021339
  206   0.022218    -7.186518     -6.629511       0.326737       0.021339
  207   0.022227    -7.212944     -6.654299       0.326739       0.021339
  208   0.022235    -7.239327     -6.678959       0.326740       0.021339
  209   0.022243    -7.265538     -6.703387       0.326742       0.021339
  210   0.022251    -7.291437     -6.727485       0.326744       0.021340
  211   0.022256    -7.316899     -6.751215       0.326746       0.021340
  212   0.022261    -7.341830     -6.774634       0.326748       0.021340
  213   0.022266    -7.366133     -6.797797       0.326750       0.021340
  214   0.022272    -7.389803     -6.820757       0.326752       0.021340
  215   0.022280    -7.412646     -6.843244       0.326754       0.021340
  216   0.022289    -7.433429     -6.863755       0.326757       0.021340
  217   0.022302    -7.451416     -6.881510       0.326759       0.021340
  218   0.022318    -7.466867     -6.897042       0.326761       0.021340
  219   0.022328    -7.479935     -6.910718       0.326764       0.021341
  220   0.022333    -7.490517     -6.922434       0.326766       0.021341
  221   0.022341    -7.498768     -6.932297       0.326769       0.021341
  222   0.022345    -7.504985     -6.940536       0.326771       0.021341
  223   0.022353    -7.509412     -6.947262       0.326774       0.021341
  224   0.022360    -7.512375     -6.952685       0.326777       0.021341
  225   0.022368    -7.514271     -6.957116       0.326780       0.021341
  226   0.022373    -7.515416     -6.960784       0.326782       0.021342
  227   0.022395    -7.516054     -6.963853       0.326785       0.021342
  228   0.022368    -7.516395     -6.966480       0.326788       0.021342
  229   0.022352    -7.516563     -6.968746       0.326791       0.021342
  230   0.022326    -7.516612     -6.970667       0.326794       0.021342
  231   0.022306    -7.516555     -6.972246       0.326797       0.021342
  232   0.022300    -7.516373     -6.973463       0.326800       0.021342
  233   0.022288    -7.516021     -6.974279       0.326803       0.021343
  234   0.022265    -7.515444     -6.974651       0.326806       0.021343
  235   0.022241    -7.514582     -6.974536       0.326809       0.021343
  236   0.022216    -7.513381     -6.973896       0.326812       0.021343
  237   0.022192    -7.511799     -6.972709       0.326815       0.021343
  238   0.022169    -7.509811     -6.970972       0.326818       0.021343
  239   0.022146    -7.507414     -6.968704       0.326821       0.021344

---------------------- Local Time Stepping Summary ----------------------
MG level: 0 -> Min. DT: 0.000491787. Max. DT: 3.62294. CFL: 10.
MG level: 1 -> Min. DT: 0.000789692. Max. DT: 5.70315. CFL: 8.35917.
MG level: 2 -> Min. DT: 0.00156523. Max. DT: 8.2978. CFL: 7.39444.
-------------------------------------------------------------------------

----------------------- Residual Evolution Summary ----------------------
log10[Maximum residual]: -6.15667.
Maximum residual point 1182, located at (0.630235, 0.131859).
-------------------------------------------------------------------------

 Iter    Time(s)     Res[Rho]     Res[RhoE]      CL(Total)      CD(Total)
  240   0.022122    -7.504627     -6.965947       0.326824       0.021344
  241   0.022099    -7.501490     -6.962763       0.326827       0.021344
  242   0.022075    -7.498062     -6.959231       0.326830       0.021344
  243   0.022052    -7.494415     -6.955442       0.326833       0.021344
  244   0.022029    -7.490632     -6.951496       0.326836       0.021344
  245   0.022008    -7.486801     -6.947494       0.326839       0.021345
  246   0.021987    -7.483014     -6.943539       0.326842       0.021345
  247   0.021967    -7.479358     -6.939730       0.326845       0.021345
  248   0.021945    -7.475919     -6.936155       0.326847       0.021345
  249   0.021925    -7.472770     -6.932896       0.326850       0.021345
  250   0.021905    -7.469980     -6.930022       0.326853       0.021345

-------------------------- File Output Summary --------------------------
Writing comma-separated values (CSV) surface files.
Merging coordinates in the Master node.
Merging solution in the Master node.
Writing SU2 native restart file.
Writing the forces breakdown file.
-------------------------------------------------------------------------

  251   0.022092    -7.467604     -6.927588       0.326856       0.021345
  252   0.022073    -7.465687     -6.925638       0.326858       0.021346
  253   0.022054    -7.464264     -6.924204       0.326861       0.021346
  254   0.022036    -7.463357     -6.923308       0.326864       0.021346
  255   0.022016    -7.462985     -6.922963       0.326866       0.021346
  256   0.021992    -7.463154     -6.923171       0.326869       0.021346
  257   0.021973    -7.463861     -6.923928       0.326871       0.021346
  258   0.021953    -7.465101     -6.925221       0.326873       0.021346
  259   0.021935    -7.466861     -6.927036       0.326876       0.021347
  260   0.021914    -7.469121     -6.929345       0.326878       0.021347
  261   0.021898    -7.471832     -6.932097       0.326880       0.021347
  262   0.021884    -7.474986     -6.935280       0.326882       0.021347
  263   0.021863    -7.478568     -6.938884       0.326885       0.021347
  264   0.021842    -7.482560     -6.942889       0.326887       0.021347
  265   0.021823    -7.486950     -6.947286       0.326889       0.021347
  266   0.021803    -7.491723     -6.952059       0.326891       0.021347
  267   0.021790    -7.496867     -6.957197       0.326893       0.021347
  268   0.021772    -7.502367     -6.962686       0.326894       0.021348
  269   0.021752    -7.508212     -6.968513       0.326896       0.021348
  270   0.021734    -7.514389     -6.974666       0.326898       0.021348
  271   0.021719    -7.520883     -6.981132       0.326900       0.021348
  272   0.021701    -7.527683     -6.987900       0.326901       0.021348
  273   0.021681    -7.534776     -6.994956       0.326903       0.021348
  274   0.021663    -7.542150     -7.002288       0.326905       0.021348
  275   0.021673    -7.549794     -7.009886       0.326906       0.021348
  276   0.021683    -7.557697     -7.017739       0.326908       0.021348
  277   0.021689    -7.565850     -7.025838       0.326909       0.021348
  278   0.021699    -7.574245     -7.034174       0.326911       0.021348
  279   0.021703    -7.582875     -7.042741       0.326912       0.021349

---------------------- Local Time Stepping Summary ----------------------
MG level: 0 -> Min. DT: 0.000491794. Max. DT: 3.62294. CFL: 10.
MG level: 1 -> Min. DT: 0.000789699. Max. DT: 5.70315. CFL: 8.35917.
MG level: 2 -> Min. DT: 0.00156517. Max. DT: 8.2978. CFL: 7.39444.
-------------------------------------------------------------------------

----------------------- Residual Evolution Summary ----------------------
log10[Maximum residual]: -6.22784.
Maximum residual point 1182, located at (0.630235, 0.131859).
-------------------------------------------------------------------------

 Iter    Time(s)     Res[Rho]     Res[RhoE]      CL(Total)      CD(Total)
  280   0.021708    -7.591732     -7.051533       0.326913       0.021349
  281   0.021720    -7.600813     -7.060544       0.326915       0.021349
  282   0.021728    -7.610112     -7.069770       0.326916       0.021349
  283   0.021734    -7.619627     -7.079209       0.326917       0.021349
  284   0.021754    -7.629354     -7.088858       0.326918       0.021349
  285   0.021768    -7.639290     -7.098714       0.326919       0.021349
  286   0.021776    -7.649436     -7.108777       0.326920       0.021349
  287   0.021785    -7.659788     -7.119045       0.326921       0.021349
  288   0.021801    -7.670347     -7.129516       0.326922       0.021349
  289   0.021813    -7.681112     -7.140192       0.326923       0.021349
  290   0.021814    -7.692082     -7.151070       0.326924       0.021349
  291   0.021799    -7.703258     -7.162152       0.326925       0.021349
  292   0.021781    -7.714639     -7.173437       0.326926       0.021349
  293   0.021762    -7.726227     -7.184926       0.326927       0.021349
  294   0.021743    -7.738021     -7.196619       0.326928       0.021349
  295   0.021725    -7.750023     -7.208515       0.326928       0.021349
  296   0.021707    -7.762232     -7.220616       0.326929       0.021349
  297   0.021689    -7.774651     -7.232923       0.326930       0.021349
  298   0.021670    -7.787278     -7.245434       0.326930       0.021350
  299   0.021653    -7.800115     -7.258152       0.326931       0.021350
  300   0.021636    -7.813163     -7.271075       0.326932       0.021350
  301   0.021623    -7.826422     -7.284206       0.326932       0.021350
  302   0.021606    -7.839894     -7.297544       0.326933       0.021350
  303   0.021592    -7.853580     -7.311089       0.326933       0.021350
  304   0.021577    -7.867480     -7.324844       0.326934       0.021350
  305   0.021561    -7.881596     -7.338809       0.326934       0.021350
  306   0.021543    -7.895930     -7.352985       0.326935       0.021350
  307   0.021528    -7.910484     -7.367374       0.326935       0.021350
  308   0.021512    -7.925259     -7.381977       0.326936       0.021350
  309   0.021502    -7.940258     -7.396796       0.326936       0.021350
  310   0.021488    -7.955484     -7.411834       0.326936       0.021350
  311   0.021472    -7.970940     -7.427093       0.326937       0.021350
  312   0.021456    -7.986628     -7.442575       0.326937       0.021350
  313   0.021441    -8.002553     -7.458284       0.326937       0.021350
  314   0.021425    -8.018718     -7.474224       0.326938       0.021350
  315   0.021413    -8.035128     -7.490397       0.326938       0.021350
  316   0.021397    -8.051787     -7.506807       0.326938       0.021350
  317   0.021388    -8.068700     -7.523459       0.326938       0.021350
  318   0.021375    -8.085873     -7.540357       0.326939       0.021350
  319   0.021358    -8.103310     -7.557505       0.326939       0.021350

---------------------- Local Time Stepping Summary ----------------------
MG level: 0 -> Min. DT: 0.000491797. Max. DT: 3.62294. CFL: 10.
MG level: 1 -> Min. DT: 0.000789702. Max. DT: 5.70315. CFL: 8.35917.
MG level: 2 -> Min. DT: 0.00156517. Max. DT: 8.2978. CFL: 7.39444.
-------------------------------------------------------------------------

----------------------- Residual Evolution Summary ----------------------
log10[Maximum residual]: -6.78346.
Maximum residual point 1182, located at (0.630235, 0.131859).
-------------------------------------------------------------------------

 Iter    Time(s)     Res[Rho]     Res[RhoE]      CL(Total)      CD(Total)
  320   0.021344    -8.121018     -7.574909       0.326939       0.021350
  321   0.021334    -8.139003     -7.592573       0.326939       0.021350
  322   0.021319    -8.157272     -7.610503       0.326939       0.021350
  323   0.021320    -8.175832     -7.628704       0.326939       0.021350
  324   0.021309    -8.194691     -7.647182       0.326940       0.021350
  325   0.021295    -8.213855     -7.665944       0.326940       0.021350
  326   0.021285    -8.233334     -7.684995       0.326940       0.021350
  327   0.021272    -8.253137     -7.704343       0.326940       0.021350
  328   0.021258    -8.273272     -7.723995       0.326940       0.021350
  329   0.021245    -8.293750     -7.743956       0.326940       0.021350
  330   0.021230    -8.314579     -7.764234       0.326940       0.021350
  331   0.021216    -8.335771     -7.784837       0.326940       0.021350
  332   0.021203    -8.357336     -7.805771       0.326940       0.021350
  333   0.021194    -8.379285     -7.827042       0.326940       0.021350
  334   0.021206    -8.401629     -7.848659       0.326940       0.021350
  335   0.021220    -8.424378     -7.870626       0.326940       0.021350
  336   0.021217    -8.447544     -7.892949       0.326940       0.021350
  337   0.021206    -8.471136     -7.915631       0.326940       0.021350
  338   0.021198    -8.495162     -7.938675       0.326940       0.021350
  339   0.021196    -8.519630     -7.962081       0.326940       0.021350
  340   0.021188    -8.544545     -7.985847       0.326940       0.021350
  341   0.021174    -8.569907     -8.009966       0.326940       0.021350
  342   0.021164    -8.595714     -8.034427       0.326940       0.021350
  343   0.021152    -8.621957     -8.059213       0.326940       0.021350
  344   0.021147    -8.648614     -8.084296       0.326940       0.021350
  345   0.021136    -8.675655     -8.109639       0.326940       0.021350
  346   0.021125    -8.703035     -8.135192       0.326940       0.021350
  347   0.021114    -8.730682     -8.160885       0.326940       0.021350
  348   0.021102    -8.758502     -8.186626       0.326940       0.021350
  349   0.021088    -8.786361     -8.212296       0.326940       0.021350
  350   0.021075    -8.814077     -8.237735       0.326940       0.021350
  351   0.021064    -8.841409     -8.262742       0.326940       0.021350
  352   0.021050    -8.868057     -8.287097       0.326940       0.021350
  353   0.021038    -8.893692     -8.310612       0.326940       0.021350
  354   0.021025    -8.918028     -8.333199       0.326940       0.021350
  355   0.021012    -8.941129     -8.355090       0.326940       0.021350
  356   0.020998    -8.963033     -8.376427       0.326939       0.021350
  357   0.020988    -8.982605     -8.395962       0.326939       0.021350
  358   0.020980    -8.999055     -8.412909       0.326939       0.021350
  359   0.020971    -9.012499     -8.427578       0.326939       0.021350

---------------------- Local Time Stepping Summary ----------------------
MG level: 0 -> Min. DT: 0.000491797. Max. DT: 3.62294. CFL: 10.
MG level: 1 -> Min. DT: 0.000789702. Max. DT: 5.70315. CFL: 8.35917.
MG level: 2 -> Min. DT: 0.00156517. Max. DT: 8.2978. CFL: 7.39444.
-------------------------------------------------------------------------

----------------------- Residual Evolution Summary ----------------------
log10[Maximum residual]: -7.84212.
Maximum residual point 771, located at (0.364436, -0.105793).
-------------------------------------------------------------------------

 Iter    Time(s)     Res[Rho]     Res[RhoE]      CL(Total)      CD(Total)
  360   0.020961    -9.022950     -8.440065       0.326939       0.021350
  361   0.020948    -9.030261     -8.450091       0.326939       0.021350
  362   0.020936    -9.034715     -8.457785       0.326939       0.021350
  363   0.020923    -9.036808     -8.463500       0.326939       0.021350
  364   0.020912    -9.036948     -8.467434       0.326939       0.021350
  365   0.020900    -9.035627     -8.469912       0.326939       0.021350
  366   0.020889    -9.033375     -8.471356       0.326939       0.021350
  367   0.020877    -9.030565     -8.472034       0.326939       0.021350
  368   0.020866    -9.027474     -8.472140       0.326938       0.021350
  369   0.020855    -9.024320     -8.471860       0.326938       0.021350
  370   0.020844    -9.021209     -8.471277       0.326938       0.021350
  371   0.020832    -9.018182     -8.470426       0.326938       0.021350
  372   0.020821    -9.015231     -8.469312       0.326938       0.021350
  373   0.020808    -9.012315     -8.467915       0.326938       0.021350
  374   0.020798    -9.009369     -8.466194       0.326938       0.021350
  375   0.020786    -9.006318     -8.464102       0.326938       0.021350
  376   0.020775    -9.003092     -8.461596       0.326938       0.021350
  377   0.020763    -8.999629     -8.458643       0.326938       0.021350
  378   0.020753    -8.995887     -8.455229       0.326937       0.021350
  379   0.020741    -8.991847     -8.451365       0.326937       0.021350
  380   0.020732    -8.987513     -8.447085       0.326937       0.021350
  381   0.020726    -8.982917     -8.442447       0.326937       0.021350
  382   0.020716    -8.978110     -8.437529       0.326937       0.021350
  383   0.020704    -8.973162     -8.432425       0.326937       0.021350
  384   0.020699    -8.968156     -8.427238       0.326937       0.021350
  385   0.020691    -8.963181     -8.422076       0.326937       0.021350
  386   0.020682    -8.958332     -8.417048       0.326937       0.021350
  387   0.020672    -8.953696     -8.412251       0.326937       0.021350
  388   0.020663    -8.949357     -8.407777       0.326937       0.021350
  389   0.020653    -8.945391     -8.403705       0.326936       0.021350
  390   0.020645    -8.941860     -8.400100       0.326936       0.021350
  391   0.020661    -8.938814     -8.397010       0.326936       0.021350
  392   0.020675    -8.936293     -8.394473       0.326936       0.021350
  393   0.020679    -8.934325     -8.392514       0.326936       0.021350
  394   0.020673    -8.932925     -8.391142       0.326936       0.021350
  395   0.020667    -8.932099     -8.390360       0.326936       0.021350
  396   0.020668    -8.931846     -8.390161       0.326936       0.021350
  397   0.020665    -8.932159     -8.390536       0.326936       0.021350
  398   0.020655    -8.933022     -8.391462       0.326936       0.021350
  399   0.020645    -8.934420     -8.392921       0.326936       0.021350

---------------------- Local Time Stepping Summary ----------------------
MG level: 0 -> Min. DT: 0.000491797. Max. DT: 3.62294. CFL: 10.
MG level: 1 -> Min. DT: 0.000789701. Max. DT: 5.70315. CFL: 8.35917.
MG level: 2 -> Min. DT: 0.00156517. Max. DT: 8.2978. CFL: 7.39444.
-------------------------------------------------------------------------

----------------------- Residual Evolution Summary ----------------------
log10[Maximum residual]: -7.56971.
Maximum residual point 1182, located at (0.630235, 0.131859).
-------------------------------------------------------------------------

 Iter    Time(s)     Res[Rho]     Res[RhoE]      CL(Total)      CD(Total)
  400   0.020633    -8.936333     -8.394892       0.326936       0.021350
  401   0.020624    -8.938738     -8.397347       0.326935       0.021350
  402   0.020612    -8.941614     -8.400268       0.326935       0.021350
  403   0.020602    -8.944938     -8.403626       0.326935       0.021350
  404   0.020592    -8.948688     -8.407403       0.326935       0.021350
  405   0.020583    -8.952841     -8.411570       0.326935       0.021350
  406   0.020571    -8.957376     -8.416111       0.326935       0.021350
  407   0.020560    -8.962272     -8.421003       0.326935       0.021350
  408   0.020549    -8.967507     -8.426223       0.326935       0.021350
  409   0.020539    -8.973064     -8.431756       0.326935       0.021350
  410   0.020528    -8.978922     -8.437579       0.326935       0.021350
  411   0.020518    -8.985066     -8.443679       0.326935       0.021350
  412   0.020507    -8.991476     -8.450036       0.326935       0.021350
  413   0.020498    -8.998142     -8.456642       0.326935       0.021350
  414   0.020487    -9.005046     -8.463478       0.326935       0.021350
  415   0.020479    -9.012179     -8.470535       0.326935       0.021350
  416   0.020471    -9.019529     -8.477801       0.326935       0.021350
  417   0.020461    -9.027088     -8.485272       0.326934       0.021350
  418   0.020452    -9.034847     -8.492938       0.326934       0.021350
  419   0.020442    -9.042800     -8.500792       0.326934       0.021350
  420   0.020432    -9.050942     -8.508831       0.326934       0.021350
  421   0.020422    -9.059270     -8.517052       0.326934       0.021350
  422   0.020413    -9.067779     -8.525451       0.326934       0.021350
  423   0.020403    -9.076468     -8.534026       0.326934       0.021350
  424   0.020393    -9.085337     -8.542779       0.326934       0.021350
  425   0.020384    -9.094382     -8.551705       0.326934       0.021350
  426   0.020374    -9.103604     -8.560806       0.326934       0.021350
  427   0.020369    -9.113003     -8.570082       0.326934       0.021350
  428   0.020363    -9.122578     -8.579531       0.326934       0.021350
  429   0.020355    -9.132330     -8.589155       0.326934       0.021350
  430   0.020345    -9.142259     -8.598952       0.326934       0.021350
  431   0.020337    -9.152367     -8.608927       0.326934       0.021350
  432   0.020327    -9.162649     -8.619070       0.326934       0.021350
  433   0.020320    -9.173114     -8.629396       0.326934       0.021350
  434   0.020311    -9.183750     -8.639887       0.326934       0.021350
  435   0.020303    -9.194566     -8.650556       0.326934       0.021350
  436   0.020294    -9.205556     -8.661393       0.326934       0.021350
  437   0.020286    -9.216726     -8.672408       0.326934       0.021350
  438   0.020278    -9.228067     -8.683586       0.326934       0.021350
  439   0.020277    -9.239586     -8.694939       0.326934       0.021350

---------------------- Local Time Stepping Summary ----------------------
MG level: 0 -> Min. DT: 0.000491797. Max. DT: 3.62294. CFL: 10.
MG level: 1 -> Min. DT: 0.000789701. Max. DT: 5.70315. CFL: 8.35917.
MG level: 2 -> Min. DT: 0.00156517. Max. DT: 8.2978. CFL: 7.39444.
-------------------------------------------------------------------------

----------------------- Residual Evolution Summary ----------------------
log10[Maximum residual]: -7.89598.
Maximum residual point 1182, located at (0.630235, 0.131859).
-------------------------------------------------------------------------

 Iter    Time(s)     Res[Rho]     Res[RhoE]      CL(Total)      CD(Total)
  440   0.020267    -9.251275     -8.706455       0.326934       0.021350
  441   0.020259    -9.263140     -8.718143       0.326934       0.021350
  442   0.020250    -9.275177     -8.729995       0.326934       0.021350
  443   0.020242    -9.287386     -8.742015       0.326934       0.021350
  444   0.020234    -9.299768     -8.754201       0.326934       0.021350
  445   0.020225    -9.312325     -8.766555       0.326934       0.021350
  446   0.020216    -9.325050     -8.779070       0.326934       0.021350
  447   0.020208    -9.337952     -8.791756       0.326934       0.021350
  448   0.020201    -9.351028     -8.804608       0.326934       0.021350
  449   0.020206    -9.364271     -8.817619       0.326934       0.021350
  450   0.020220    -9.377693     -8.830801       0.326934       0.021350
  451   0.020228    -9.391287     -8.844146       0.326934       0.021350
  452   0.020222    -9.405061     -8.857664       0.326934       0.021350
  453   0.020216    -9.419011     -8.871348       0.326934       0.021350
  454   0.020219    -9.433139     -8.885199       0.326933       0.021350
  455   0.020217    -9.447451     -8.899227       0.326933       0.021350
  456   0.020209    -9.461945     -8.913425       0.326933       0.021350
  457   0.020200    -9.476622     -8.927795       0.326933       0.021350
  458   0.020193    -9.491487     -8.942343       0.326933       0.021350
  459   0.020185    -9.506548     -8.957075       0.326933       0.021350
  460   0.020179    -9.521788     -8.971969       0.326933       0.021350
  461   0.020173    -9.537240     -8.987069       0.326933       0.021350

-------------------------- File Output Summary --------------------------
Writing comma-separated values (CSV) surface files.
Merging coordinates in the Master node.
Merging solution in the Master node.
Writing SU2 native restart file.
Writing the forces breakdown file.
-------------------------------------------------------------------------

History file, closed.

------------------------- Solver Postprocessing -------------------------
Deleted CNumerics container.
Deleted CIntegration container.
Deleted CSolver container.
Deleted CIteration container.
Deleted CInterpolator container.
Deleted CTransfer container.
Deleted CGeometry container.
Deleted CFreeFormDefBox class.
Deleted CSurfaceMovement class.
Deleted CVolumetricMovement class.
Deleted CConfig container.
Deleted COutput class.
-------------------------------------------------------------------------

Completed in 9.376094 seconds on 8 cores.

------------------------- Exit Success (SU2_CFD) ------------------------


-------------------------------------------------------------------------
|    ___ _   _ ___                                                      |
|   / __| | | |_  )   Release 5.0.0  "Raven"                            |
|   \__ \ |_| |/ /                                                      |
|   |___/\___//___|   Suite (Solution Exporting Code)                   |
|                                                                       |
-------------------------------------------------------------------------
| SU2 Original Developers: Dr. Francisco D. Palacios.                   |
|                          Dr. Thomas D. Economon.                      |
-------------------------------------------------------------------------
| SU2 Developers:                                                       |
| - Prof. Juan J. Alonso's group at Stanford University.                |
| - Prof. Piero Colonna's group at Delft University of Technology.      |
| - Prof. Nicolas R. Gauger's group at Kaiserslautern U. of Technology. |
| - Prof. Alberto Guardone's group at Polytechnic University of Milan.  |
| - Prof. Rafael Palacios' group at Imperial College London.            |
| - Prof. Edwin van der Weide's group at the University of Twente.      |
| - Prof. Vincent Terrapon's group at the University of Liege.          |
-------------------------------------------------------------------------
| Copyright (C) 2012-2017 SU2, the open-source CFD code.                |
|                                                                       |
| SU2 is free software; you can redistribute it and/or                  |
| modify it under the terms of the GNU Lesser General Public            |
| License as published by the Free Software Foundation; either          |
| version 2.1 of the License, or (at your option) any later version.    |
|                                                                       |
| SU2 is distributed in the hope that it will be useful,                |
| but WITHOUT ANY WARRANTY; without even the implied warranty of        |
| MERCHANTABILITY or FITNESS FOR A PARTICULAR PURPOSE. See the GNU      |
| Lesser General Public License for more details.                       |
|                                                                       |
| You should have received a copy of the GNU Lesser General Public      |
| License along with SU2. If not, see <http://www.gnu.org/licenses/>.   |
-------------------------------------------------------------------------

------------------------ Physical Case Definition -----------------------
Input mesh file name: mesh_NACA0012_inv.su2

-------------------------- Output Information ---------------------------
The output file format is Tecplot ASCII (.dat).
Flow variables file name: flow.

------------------- Config File Boundary Information --------------------
Euler wall boundary marker(s): airfoil.
Far-field boundary marker(s): farfield.

---------------------- Read Grid File Information -----------------------
Two dimensional problem.
5233 points before parallel partitioning.
Performing linear partitioning of the grid nodes.
10216 interior elements before parallel partitioning.
Calling the partitioning functions.
Building the graph adjacency structure.
Distributing elements across all ranks.
2 surface markers.
200 boundary elements in index 0 (Marker = airfoil).
50 boundary elements in index 1 (Marker = farfield).
Calling ParMETIS...
Finished partitioning using ParMETIS (547 edge cuts).
Communicating partition data and creating halo layers.
10763 interior elements including halo cells. 
10763 triangles.
5796 vertices including ghost points. 
Establishing MPI communication patterns.
Identify vertices.

------------------------- Solution Postprocessing -----------------------
Reading and storing the solution from restart_flow.dat.
Merging connectivities in the Master node.
Merging solution in the Master node.
Writing Tecplot ASCII file (volume grid).
Writing Tecplot ASCII file (surface grid).

Completed in 0.119441 seconds on 8 cores.

------------------------- Exit Success (SU2_SOL) ------------------------

