
-------------------------------------------------------------------------
|    ___ _   _ ___                                                      |
|   / __| | | |_  )   Release 5.0.0  "Raven"                            |
|   \__ \ |_| |/ /                                                      |
|   |___/\___//___|   Suite (Computational Fluid Dynamics Code)         |
|                                                                       |
-------------------------------------------------------------------------
| SU2 Original Developers: Dr. Francisco D. Palacios.                   |
|                          Dr. Thomas D. Economon.                      |
-------------------------------------------------------------------------
| SU2 Developers:                                                       |
| - Prof. Juan J. Alonso's group at Stanford University.                |
| - Prof. Piero Colonna's group at Delft University of Technology.      |
| - Prof. Nicolas R. Gauger's group at Kaiserslautern U. of Technology. |
| - Prof. Alberto Guardone's group at Polytechnic University of Milan.  |
| - Prof. Rafael Palacios' group at Imperial College London.            |
| - Prof. Edwin van der Weide's group at the University of Twente.      |
| - Prof. Vincent Terrapon's group at the University of Liege.          |
-------------------------------------------------------------------------
| Copyright (C) 2012-2017 SU2, the open-source CFD code.                |
|                                                                       |
| SU2 is free software; you can redistribute it and/or                  |
| modify it under the terms of the GNU Lesser General Public            |
| License as published by the Free Software Foundation; either          |
| version 2.1 of the License, or (at your option) any later version.    |
|                                                                       |
| SU2 is distributed in the hope that it will be useful,                |
| but WITHOUT ANY WARRANTY; without even the implied warranty of        |
| MERCHANTABILITY or FITNESS FOR A PARTICULAR PURPOSE. See the GNU      |
| Lesser General Public License for more details.                       |
|                                                                       |
| You should have received a copy of the GNU Lesser General Public      |
| License along with SU2. If not, see <http://www.gnu.org/licenses/>.   |
-------------------------------------------------------------------------

------------------------ Physical Case Definition -----------------------
Compressible Euler equations.
Mach number: 0.8.
Angle of attack (AoA): 1.25 deg, and angle of sideslip (AoS): 0 deg.
Read flow solution from: solution_flow.dat.
Non-Dimensional simulation (P=1.0, Rho=1.0, T=1.0 at the farfield).
The reference length/area (force coefficient) is 1.
The reference length (moment computation) is 1.
Reference origin (moment computation) is (0.25, 0, 0).
Surface(s) where the force coefficients are evaluated: airfoil.
Surface(s) plotted in the output file: airfoil.
Surface(s) affected by the design variables: airfoil.
Input mesh file name: mesh_NACA0012_inv_deform.su2

---------------------- Space Numerical Integration ----------------------
Jameson-Schmidt-Turkel scheme for the flow inviscid terms.
JST viscous coefficients (1st, 2nd & 4th): 0.15, 0.5, 0.02.
The method includes a grid stretching correction (p = 0.3).
Second order integration.
Gradient computation using Green-Gauss theorem.

---------------------- Time Numerical Integration -----------------------
Local time stepping (steady state simulation).
Euler implicit method for the flow equations.
V Multigrid Cycle, with 2 multigrid levels.
Damping factor for the residual restriction: 1.
Damping factor for the correction prolongation: 1.
No CFL adaptation.
Multigrid Level:                       0     1     2
Courant-Friedrichs-Lewy number:       10
MG PreSmooth coefficients:             1     2     3
MG PostSmooth coefficients:            0     0     0
MG CorrecSmooth coefficients:          0     0     0

------------------------- Convergence Criteria --------------------------
Maximum number of iterations: 1000.
Reduce the density residual 6 orders of magnitude.
The minimum bound for the density residual is 10^(-13).
Start convergence criteria at iteration 10.

-------------------------- Output Information ---------------------------
Writing a flow solution every 250 iterations.
Writing the convergence history every 1 iterations.
The output file format is Tecplot ASCII (.dat).
Convergence history file name: history_direct.
Forces breakdown file name: forces_breakdown.dat.
Surface flow coefficients file name: surface_flow.
Flow variables file name: flow.
Restart flow file name: restart_flow.dat.

------------------- Config File Boundary Information --------------------
Euler wall boundary marker(s): airfoil.
Far-field boundary marker(s): farfield.

---------------------- Read Grid File Information -----------------------
Two dimensional problem.
5233 points before parallel partitioning.
Performing linear partitioning of the grid nodes.
10216 interior elements before parallel partitioning.
Calling the partitioning functions.
Building the graph adjacency structure.
Distributing elements across all ranks.
2 surface markers.
200 boundary elements in index 0 (Marker = airfoil).
50 boundary elements in index 1 (Marker = farfield).
Calling ParMETIS...
Finished partitioning using ParMETIS (547 edge cuts).
Communicating partition data and creating halo layers.
10763 interior elements including halo cells. 
10763 triangles.
5796 vertices including ghost points. 
Establishing MPI communication patterns.

------------------------- Geometry Preprocessing ------------------------
Setting point connectivity.
Renumbering points (Reverse Cuthill McKee Ordering).
Recomputing point connectivity.
Setting element connectivity.
Checking the numerical grid orientation.
Identifying edges and vertices.
Computing centers of gravity.
Setting the control volume structure.
Area of the computational grid: 1.3e+03.
Searching for the closest normal neighbors to the surfaces.
Compute the surface curvature.
Max K: 7.84e+03. Mean K: 35.7. Standard deviation K: 494.
Checking for periodicity.
Setting the multigrid structure.
MG level: 0 -> CVs: 5796. Agglomeration rate 1/1.00. CFL 10.
MG level: 1 -> CVs: 1800. Agglomeration rate 1/3.22. CFL 8.36.
MG level: 2 -> CVs: 626. Agglomeration rate 1/2.88. CFL 7.39.
Computing wall distances.
Wetted area = 2.03 m.
Area projection in the x-plane = 0.107 m, y-plane = 1 m.

------------------------- Driver information --------------------------
A Fluid driver has been instantiated.

------------------------ Iteration Preprocessing ------------------------
Zone 1: Euler/Navier-Stokes/RANS flow iteration.

------------------------- Solver Preprocessing --------------------------
Inviscid flow: Computing density based on free-stream
temperature and pressure using the ideal gas law.
Force coefficients computed using free-stream values.
-- Input conditions:
Fluid Model: STANDARD_AIR 
Specific gas constant: 287.058 N.m/kg.K.
Specific gas constant (non-dim): 1
Specific Heat Ratio: 1.4
Free-stream static pressure: 101325 Pa.
Free-stream total pressure: 154454 Pa.
Free-stream temperature: 288.15 K.
Free-stream density: 1.22498 kg/m^3.
Free-stream velocity: (272.173, 5.93883) m/s. Magnitude: 272.238 m/s (529.186 KTS).
Free-stream total energy per unit mass: 243846 m^2/s^2.
-- Reference values:
Reference specific gas constant: 287.058 N.m/kg.K.
Reference pressure: 101325 Pa.
Reference temperature: 288.15 K.
Reference density: 1.22498 kg/m^3.
Reference velocity: 287.603 m/s.
Reference energy per unit mass: 82715.8 m^2/s^2.
-- Resulting non-dimensional state:
Mach number (non-dim): 0.8
Specific gas constant (non-dim): 1
Free-stream temperature (non-dim): 1
Free-stream pressure (non-dim): 1
Free-stream density (non-dim): 1
Free-stream velocity (non-dim): (0.946348, 0.0206494). Magnitude: 0.946573
Free-stream total energy per unit mass (non-dim): 2.948

Initialize Jacobian structure (Euler). MG level: 0.
Initialize Jacobian structure (Euler). MG level: 1.
Initialize Jacobian structure (Euler). MG level: 2.

----------------- Integration and Numerics Preprocessing ----------------
Integration Preprocessing.
Numerics Preprocessing.

------------------------------ Begin Solver -----------------------------

---------------------- Local Time Stepping Summary ----------------------
MG level: 0 -> Min. DT: 0.000497793. Max. DT: 3.62883. CFL: 10.
MG level: 1 -> Min. DT: 0.00079982. Max. DT: 5.71123. CFL: 8.35917.
MG level: 2 -> Min. DT: 0.00155925. Max. DT: 8.3109. CFL: 7.39444.
-------------------------------------------------------------------------

----------------------- Residual Evolution Summary ----------------------
log10[Maximum residual]: -4.48558.
Maximum residual point 151, located at (0.52761, 0.0456839).
-------------------------------------------------------------------------

 Iter    Time(s)     Res[Rho]     Res[RhoE]      CL(Total)      CD(Total)
 2091   0.015651    -5.621896     -5.025517       0.074355       0.000599
 2092   0.014961    -5.731439     -5.131740       0.074270       0.000515
 2093   0.014861    -5.735695     -5.140738       0.074233       0.000534
 2094   0.014898    -5.729975     -5.134531       0.074120       0.000547
 2095   0.014896    -5.699261     -5.104648       0.073992       0.000549
 2096   0.014918    -5.659763     -5.065733       0.073841       0.000550
 2097   0.014914    -5.628275     -5.035285       0.073679       0.000550
 2098   0.014888    -5.608475     -5.017029       0.073515       0.000548
 2099   0.014848    -5.595844     -5.005762       0.073361       0.000543
 2100   0.014871    -5.586468     -4.997041       0.073220       0.000537
 2101   0.014849    -5.579312     -4.989841       0.073089       0.000531
 2102   0.014868    -5.574558     -4.984557       0.072965       0.000525
 2103   0.015113    -5.572604     -4.981754       0.072848       0.000518
 2104   0.015304    -5.574220     -4.982390       0.072735       0.000512
 2105   0.015914    -5.580963     -4.988333       0.072628       0.000504
 2106   0.015826    -5.595698     -5.002979       0.072524       0.000497
 2107   0.015861    -5.623502     -5.032392       0.072421       0.000488
 2108   0.016187    -5.671113     -5.085080       0.072320       0.000480
 2109   0.016103    -5.729643     -5.152101       0.072234       0.000477
 2110   0.016108    -5.763470     -5.190531       0.072173       0.000478
 2111   0.016038    -5.790115     -5.220367       0.072122       0.000477
 2112   0.015960    -5.828724     -5.265387       0.072080       0.000478
 2113   0.015910    -5.848783     -5.286988       0.072051       0.000480
 2114   0.015865    -5.868192     -5.307757       0.072031       0.000482
 2115   0.015812    -5.897642     -5.342622       0.072016       0.000484
 2116   0.015758    -5.924163     -5.374084       0.072008       0.000486
 2117   0.015762    -5.953038     -5.409607       0.072004       0.000489
 2118   0.015702    -5.971431     -5.431659       0.072002       0.000492
 2119   0.015664    -5.971054     -5.429373       0.071999       0.000494
 2120   0.015643    -5.952425     -5.405236       0.071995       0.000496
 2121   0.015606    -5.930527     -5.379206       0.071988       0.000497
 2122   0.015565    -5.913739     -5.360345       0.071979       0.000498
 2123   0.015545    -5.902601     -5.347817       0.071967       0.000499
 2124   0.015538    -5.897687     -5.341991       0.071952       0.000498
 2125   0.015537    -5.899599     -5.343623       0.071935       0.000498
 2126   0.015514    -5.908301     -5.352916       0.071917       0.000496
 2127   0.015495    -5.922275     -5.368484       0.071899       0.000494
 2128   0.015475    -5.937366     -5.385584       0.071880       0.000492
 2129   0.015444    -5.949600     -5.399243       0.071861       0.000490
 2130   0.015427    -5.958003     -5.408172       0.071841       0.000487

---------------------- Local Time Stepping Summary ----------------------
MG level: 0 -> Min. DT: 0.000497794. Max. DT: 3.62883. CFL: 10.
MG level: 1 -> Min. DT: 0.000799915. Max. DT: 5.71125. CFL: 8.35917.
MG level: 2 -> Min. DT: 0.00155935. Max. DT: 8.31092. CFL: 7.39444.
-------------------------------------------------------------------------

----------------------- Residual Evolution Summary ----------------------
log10[Maximum residual]: -4.97508.
Maximum residual point 1182, located at (0.628645, 0.128486).
-------------------------------------------------------------------------

 Iter    Time(s)     Res[Rho]     Res[RhoE]      CL(Total)      CD(Total)
 2131   0.015403    -5.963731     -5.413948       0.071821       0.000484
 2132   0.015380    -5.968257     -5.418515       0.071799       0.000481
 2133   0.015354    -5.972362     -5.422790       0.071777       0.000479
 2134   0.015363    -5.976267     -5.426936       0.071755       0.000477
 2135   0.015378    -5.980015     -5.430937       0.071733       0.000476
 2136   0.015404    -5.983698     -5.434899       0.071711       0.000474
 2137   0.015391    -5.987477     -5.439036       0.071690       0.000474
 2138   0.015371    -5.991541     -5.443583       0.071670       0.000473
 2139   0.015363    -5.996083     -5.448765       0.071650       0.000473
 2140   0.015497    -6.001270     -5.454765       0.071630       0.000472
 2141   0.015473    -6.007184     -5.461658       0.071611       0.000472
 2142   0.015453    -6.013903     -5.469521       0.071593       0.000472
 2143   0.015475    -6.021503     -5.478422       0.071576       0.000471
 2144   0.015454    -6.030021     -5.488380       0.071559       0.000471
 2145   0.015438    -6.039433     -5.499353       0.071543       0.000470
 2146   0.015428    -6.049774     -5.511381       0.071527       0.000470
 2147   0.015419    -6.061013     -5.524422       0.071513       0.000470
 2148   0.015395    -6.073162     -5.538492       0.071499       0.000469
 2149   0.015385    -6.086270     -5.553654       0.071486       0.000469
 2150   0.015380    -6.100383     -5.569958       0.071474       0.000469
 2151   0.015371    -6.115539     -5.587440       0.071462       0.000468
 2152   0.015446    -6.131660     -5.605969       0.071451       0.000468
 2153   0.015485    -6.148574     -5.625302       0.071440       0.000468
 2154   0.015465    -6.165799     -5.644793       0.071429       0.000468
 2155   0.015443    -6.182309     -5.663074       0.071418       0.000467
 2156   0.015435    -6.196732     -5.678319       0.071408       0.000467
 2157   0.015421    -6.208444     -5.690003       0.071399       0.000467
 2158   0.015408    -6.217453     -5.698450       0.071391       0.000467
 2159   0.015395    -6.223498     -5.703354       0.071383       0.000466
 2160   0.015398    -6.226777     -5.705040       0.071376       0.000466
 2161   0.015391    -6.227529     -5.703848       0.071370       0.000466
 2162   0.015376    -6.226435     -5.700664       0.071364       0.000466
 2163   0.015362    -6.225378     -5.697972       0.071358       0.000466
 2164   0.015349    -6.226292     -5.698181       0.071354       0.000466
 2165   0.015337    -6.230179     -5.702322       0.071350       0.000466
 2166   0.015327    -6.237217     -5.710371       0.071347       0.000465
 2167   0.015321    -6.247223     -5.721918       0.071344       0.000465
 2168   0.015360    -6.259926     -5.736542       0.071342       0.000465
 2169   0.015350    -6.275022     -5.753807       0.071341       0.000465
 2170   0.015449    -6.292199     -5.773270       0.071339       0.000465

---------------------- Local Time Stepping Summary ----------------------
MG level: 0 -> Min. DT: 0.000497805. Max. DT: 3.62883. CFL: 10.
MG level: 1 -> Min. DT: 0.000799882. Max. DT: 5.71125. CFL: 8.35917.
MG level: 2 -> Min. DT: 0.00155932. Max. DT: 8.31093. CFL: 7.39444.
-------------------------------------------------------------------------

----------------------- Residual Evolution Summary ----------------------
log10[Maximum residual]: -5.24424.
Maximum residual point 1182, located at (0.628645, 0.128486).
-------------------------------------------------------------------------

 Iter    Time(s)     Res[Rho]     Res[RhoE]      CL(Total)      CD(Total)
 2171   0.015437    -6.311052     -5.794382       0.071338       0.000465
 2172   0.015434    -6.330932     -5.816288       0.071338       0.000466
 2173   0.015422    -6.350982     -5.837891       0.071337       0.000466
 2174   0.015411    -6.370374     -5.858236       0.071337       0.000466
 2175   0.015404    -6.388646     -5.876932       0.071337       0.000466
 2176   0.015397    -6.405770     -5.894122       0.071338       0.000466
 2177   0.015385    -6.421856     -5.910030       0.071338       0.000466
 2178   0.015379    -6.437031     -5.924871       0.071339       0.000466
 2179   0.015371    -6.451501     -5.938941       0.071341       0.000466
 2180   0.015364    -6.465341     -5.952272       0.071342       0.000465
 2181   0.015364    -6.477969     -5.964003       0.071344       0.000465
 2182   0.015353    -6.487721     -5.972148       0.071347       0.000465
 2183   0.015350    -6.498389     -5.982601       0.071350       0.000465
 2184   0.015337    -6.507919     -5.990860       0.071352       0.000465
 2185   0.015325    -6.519657     -6.003114       0.071355       0.000465
 2186   0.015319    -6.529023     -6.011317       0.071357       0.000465
 2187   0.015313    -6.526744     -6.003605       0.071358       0.000465
 2188   0.015301    -6.549049     -6.033044       0.071360       0.000465
 2189   0.015289    -6.562425     -6.046100       0.071361       0.000465
 2190   0.015285    -6.588797     -6.078007       0.071362       0.000465
 2191   0.015292    -6.601333     -6.087123       0.071363       0.000465
 2192   0.015286    -6.621897     -6.109885       0.071363       0.000465
 2193   0.015286    -6.640832     -6.129245       0.071365       0.000465
 2194   0.015285    -6.654104     -6.140354       0.071366       0.000465
 2195   0.015276    -6.668766     -6.154994       0.071366       0.000465
 2196   0.015277    -6.685636     -6.172563       0.071366       0.000466
 2197   0.015271    -6.701218     -6.188080       0.071367       0.000465
 2198   0.015268    -6.717956     -6.205320       0.071367       0.000465
 2199   0.015260    -6.721960     -6.204392       0.071366       0.000465
 2200   0.015252    -6.736858     -6.220658       0.071365       0.000465
 2201   0.015246    -6.755489     -6.242150       0.071365       0.000465
 2202   0.015241    -6.775506     -6.263596       0.071365       0.000464
 2203   0.015241    -6.783357     -6.267026       0.071364       0.000464
 2204   0.015229    -6.801698     -6.287456       0.071363       0.000464
 2205   0.015221    -6.820659     -6.308519       0.071363       0.000464
 2206   0.015221    -6.839164     -6.327207       0.071363       0.000464
 2207   0.015212    -6.856915     -6.344897       0.071363       0.000464
 2208   0.015203    -6.875860     -6.364244       0.071362       0.000464
 2209   0.015197    -6.893504     -6.381883       0.071362       0.000464
 2210   0.015193    -6.908399     -6.395690       0.071362       0.000464

---------------------- Local Time Stepping Summary ----------------------
MG level: 0 -> Min. DT: 0.000497794. Max. DT: 3.62883. CFL: 10.
MG level: 1 -> Min. DT: 0.000799883. Max. DT: 5.71125. CFL: 8.35917.
MG level: 2 -> Min. DT: 0.0015593. Max. DT: 8.31093. CFL: 7.39444.
-------------------------------------------------------------------------

----------------------- Residual Evolution Summary ----------------------
log10[Maximum residual]: -5.80189.
Maximum residual point 1072, located at (0.515667, 0.13607).
-------------------------------------------------------------------------

 Iter    Time(s)     Res[Rho]     Res[RhoE]      CL(Total)      CD(Total)
 2211   0.015186    -6.926231     -6.414552       0.071361       0.000464
 2212   0.015178    -6.945166     -6.433959       0.071360       0.000464
 2213   0.015179    -6.957390     -6.443778       0.071360       0.000465
 2214   0.015175    -6.978919     -6.467581       0.071360       0.000464
 2215   0.015169    -6.992715     -6.479562       0.071359       0.000464
 2216   0.015162    -7.006986     -6.492380       0.071359       0.000464
 2217   0.015154    -7.023276     -6.510174       0.071359       0.000464
 2218   0.015149    -7.049757     -6.540425       0.071359       0.000464
 2219   0.015177    -7.069798     -6.559926       0.071358       0.000464
 2220   0.015199    -7.082017     -6.568232       0.071358       0.000464
 2221   0.015194    -7.106257     -6.596204       0.071358       0.000465
 2222   0.015189    -7.123540     -6.612142       0.071359       0.000465
 2223   0.015184    -7.126335     -6.608328       0.071359       0.000465
 2224   0.015177    -7.144351     -6.630008       0.071359       0.000465
 2225   0.015171    -7.171796     -6.662244       0.071359       0.000465
 2226   0.015164    -7.184381     -6.670634       0.071360       0.000465
 2227   0.015158    -7.200532     -6.685713       0.071360       0.000465
 2228   0.015164    -7.212684     -6.696458       0.071360       0.000465
 2229   0.015158    -7.232672     -6.718168       0.071360       0.000465
 2230   0.015158    -7.246548     -6.730360       0.071361       0.000465
 2231   0.015154    -7.259621     -6.741922       0.071361       0.000465
 2232   0.015150    -7.281599     -6.766539       0.071361       0.000465
 2233   0.015146    -7.290562     -6.771668       0.071361       0.000465
 2234   0.015146    -7.319949     -6.808352       0.071362       0.000465
 2235   0.015168    -7.345166     -6.834745       0.071363       0.000465
 2236   0.015187    -7.363705     -6.850682       0.071363       0.000465
 2237   0.015217    -7.376217     -6.859839       0.071363       0.000465
 2238   0.015212    -7.399633     -6.886635       0.071364       0.000465
 2239   0.015210    -7.421091     -6.908933       0.071365       0.000465
 2240   0.015204    -7.438465     -6.924311       0.071365       0.000465
 2241   0.015199    -7.444508     -6.925415       0.071365       0.000465
 2242   0.015194    -7.464019     -6.947423       0.071366       0.000465
 2243   0.015190    -7.483879     -6.968834       0.071366       0.000465
 2244   0.015187    -7.488439     -6.967224       0.071367       0.000465
 2245   0.015181    -7.497421     -6.974387       0.071367       0.000465
 2246   0.015176    -7.524285     -7.008662       0.071368       0.000465
 2247   0.015171    -7.546108     -7.031493       0.071368       0.000465
 2248   0.015165    -7.561722     -7.044338       0.071369       0.000465
 2249   0.015163    -7.578858     -7.061385       0.071369       0.000465
 2250   0.015157    -7.599153     -7.083375       0.071370       0.000465

---------------------- Local Time Stepping Summary ----------------------
MG level: 0 -> Min. DT: 0.000497786. Max. DT: 3.62883. CFL: 10.
MG level: 1 -> Min. DT: 0.000799885. Max. DT: 5.71125. CFL: 8.35917.
MG level: 2 -> Min. DT: 0.00155929. Max. DT: 8.31093. CFL: 7.39444.
-------------------------------------------------------------------------

----------------------- Residual Evolution Summary ----------------------
log10[Maximum residual]: -6.3977.
Maximum residual point 357, located at (0.520312, 0.0602135).
-------------------------------------------------------------------------

 Iter    Time(s)     Res[Rho]     Res[RhoE]      CL(Total)      CD(Total)
 2251   0.015151    -7.618903     -7.103496       0.071370       0.000465
 2252   0.015146    -7.636163     -7.119872       0.071371       0.000465
 2253   0.015145    -7.651676     -7.134514       0.071371       0.000465
 2254   0.015143    -7.668214     -7.151096       0.071372       0.000465
 2255   0.015140    -7.683007     -7.165081       0.071372       0.000465
 2256   0.015137    -7.694970     -7.175322       0.071372       0.000465
 2257   0.015132    -7.708995     -7.189240       0.071373       0.000465
 2258   0.015134    -7.725288     -7.206405       0.071373       0.000465
 2259   0.015136    -7.741308     -7.222565       0.071373       0.000465
 2260   0.015137    -7.758407     -7.240067       0.071374       0.000465
 2261   0.015138    -7.777231     -7.259924       0.071374       0.000465
 2262   0.015133    -7.796212     -7.279543       0.071374       0.000465
 2263   0.015127    -7.815093     -7.298750       0.071375       0.000465
 2264   0.015126    -7.833821     -7.317736       0.071375       0.000465
 2265   0.015121    -7.852160     -7.336199       0.071375       0.000465
 2266   0.015117    -7.869926     -7.353900       0.071375       0.000465
 2267   0.015114    -7.886798     -7.370451       0.071375       0.000465
 2268   0.015112    -7.902831     -7.386013       0.071376       0.000465
 2269   0.015107    -7.918555     -7.401371       0.071376       0.000465
 2270   0.015104    -7.934407     -7.417063       0.071376       0.000465
 2271   0.015100    -7.950812     -7.433572       0.071376       0.000465
 2272   0.015096    -7.968148     -7.451313       0.071376       0.000465
 2273   0.015094    -7.986555     -7.470366       0.071376       0.000465
 2274   0.015092    -8.005825     -7.490344       0.071376       0.000465
 2275   0.015095    -8.025629     -7.510781       0.071376       0.000465
 2276   0.015095    -8.045677     -7.531339       0.071376       0.000465
 2277   0.015090    -8.065792     -7.551856       0.071376       0.000465
 2278   0.015088    -8.085863     -7.572245       0.071376       0.000465
 2279   0.015083    -8.105778     -7.592398       0.071376       0.000465
 2280   0.015077    -8.125427     -7.612189       0.071376       0.000465
 2281   0.015075    -8.144752     -7.631564       0.071376       0.000465
 2282   0.015075    -8.163808     -7.650622       0.071376       0.000465
 2283   0.015073    -8.182761     -7.669602       0.071376       0.000465
 2284   0.015072    -8.201833     -7.688791       0.071376       0.000465
 2285   0.015071    -8.221217     -7.708411       0.071376       0.000465
 2286   0.015099    -8.241001     -7.728522       0.071376       0.000465
 2287   0.015104    -8.261133     -7.749007       0.071376       0.000465
 2288   0.015102    -8.281437     -7.769598       0.071376       0.000465
 2289   0.015098    -8.301729     -7.790070       0.071376       0.000465
 2290   0.015095    -8.321926     -7.810369       0.071376       0.000465

---------------------- Local Time Stepping Summary ----------------------
MG level: 0 -> Min. DT: 0.000497787. Max. DT: 3.62883. CFL: 10.
MG level: 1 -> Min. DT: 0.000799885. Max. DT: 5.71125. CFL: 8.35917.
MG level: 2 -> Min. DT: 0.00155929. Max. DT: 8.31093. CFL: 7.39444.
-------------------------------------------------------------------------

----------------------- Residual Evolution Summary ----------------------
log10[Maximum residual]: -7.18157.
Maximum residual point 357, located at (0.520312, 0.0602135).
-------------------------------------------------------------------------

 Iter    Time(s)     Res[Rho]     Res[RhoE]      CL(Total)      CD(Total)
 2291   0.015095    -8.342065     -7.830604       0.071376       0.000465
 2292   0.015093    -8.362230     -7.850909       0.071376       0.000465
 2293   0.015090    -8.382483     -7.871354       0.071376       0.000465
 2294   0.015098    -8.402830     -7.891918       0.071376       0.000465
 2295   0.015099    -8.423234     -7.912537       0.071376       0.000465
 2296   0.015095    -8.443633     -7.933120       0.071376       0.000465
 2297   0.015092    -8.463975     -7.953601       0.071376       0.000465
 2298   0.015090    -8.484220     -7.973935       0.071376       0.000465
 2299   0.015089    -8.504341     -7.994096       0.071376       0.000465
 2300   0.015085    -8.524314     -8.014059       0.071376       0.000465
 2301   0.015090    -8.544082     -8.033756       0.071376       0.000465
 2302   0.015110    -8.563604     -8.053148       0.071376       0.000465
 2303   0.015138    -8.582940     -8.072347       0.071376       0.000465
 2304   0.015152    -8.602216     -8.091536       0.071376       0.000465
 2305   0.015152    -8.621578     -8.110899       0.071376       0.000465
 2306   0.015153    -8.641140     -8.130562       0.071376       0.000465
 2307   0.015151    -8.660927     -8.150527       0.071375       0.000465
 2308   0.015148    -8.680931     -8.170760       0.071375       0.000465
 2309   0.015146    -8.701084     -8.191154       0.071375       0.000465
 2310   0.015141    -8.721260     -8.211535       0.071375       0.000465
 2311   0.015140    -8.741325     -8.231729       0.071375       0.000465
 2312   0.015137    -8.761144     -8.251579       0.071375       0.000465
 2313   0.015133    -8.780636     -8.271013       0.071375       0.000465
 2314   0.015129    -8.799777     -8.290035       0.071375       0.000465
 2315   0.015127    -8.818572     -8.308673       0.071375       0.000465
 2316   0.015124    -8.837104     -8.327056       0.071375       0.000465
 2317   0.015122    -8.855487     -8.345334       0.071375       0.000465
 2318   0.015120    -8.873839     -8.363654       0.071375       0.000465
 2319   0.015117    -8.892246     -8.382105       0.071375       0.000465
 2320   0.015123    -8.910791     -8.400786       0.071375       0.000465
 2321   0.015122    -8.929503     -8.419708       0.071375       0.000465
 2322   0.015125    -8.948394     -8.438871       0.071375       0.000465
 2323   0.015122    -8.967388     -8.458149       0.071375       0.000465
 2324   0.015119    -8.986349     -8.477349       0.071375       0.000465
 2325   0.015124    -9.005112     -8.496261       0.071375       0.000465
 2326   0.015124    -9.023582     -8.514793       0.071375       0.000465
 2327   0.015121    -9.041728     -8.532945       0.071375       0.000465
 2328   0.015121    -9.059581     -8.550780       0.071375       0.000465
 2329   0.015116    -9.077213     -8.568403       0.071375       0.000465
 2330   0.015112    -9.094714     -8.585926       0.071375       0.000465

---------------------- Local Time Stepping Summary ----------------------
MG level: 0 -> Min. DT: 0.000497788. Max. DT: 3.62883. CFL: 10.
MG level: 1 -> Min. DT: 0.000799885. Max. DT: 5.71125. CFL: 8.35917.
MG level: 2 -> Min. DT: 0.00155929. Max. DT: 8.31093. CFL: 7.39444.
-------------------------------------------------------------------------

----------------------- Residual Evolution Summary ----------------------
log10[Maximum residual]: -7.89576.
Maximum residual point 1424, located at (0.520701, 0.187873).
-------------------------------------------------------------------------

 Iter    Time(s)     Res[Rho]     Res[RhoE]      CL(Total)      CD(Total)
 2331   0.015110    -9.112139     -8.603405       0.071375       0.000465
 2332   0.015108    -9.129565     -8.620931       0.071375       0.000465
 2333   0.015106    -9.147039     -8.638557       0.071375       0.000465
 2334   0.015106    -9.164649     -8.656393       0.071375       0.000465
 2335   0.015103    -9.182392     -8.674409       0.071375       0.000465
 2336   0.015104    -9.200254     -8.692567       0.071375       0.000465
 2337   0.015100    -9.218125     -8.710704       0.071375       0.000465
 2338   0.015097    -9.235905     -8.728689       0.071375       0.000465
 2339   0.015094    -9.253530     -8.746463       0.071375       0.000465
 2340   0.015094    -9.270977     -8.764018       0.071375       0.000465
 2341   0.015091    -9.288253     -8.781375       0.071375       0.000465

-------------------------- File Output Summary --------------------------
Writing comma-separated values (CSV) surface files.
Merging coordinates in the Master node.
Merging solution in the Master node.
Writing SU2 native restart file.
Writing the forces breakdown file.
-------------------------------------------------------------------------

 2342   0.015274    -9.305439     -8.798658       0.071375       0.000465
 2343   0.015269    -9.322489     -8.815778       0.071375       0.000465
 2344   0.015266    -9.339469     -8.832831       0.071375       0.000465
 2345   0.015263    -9.356363     -8.849789       0.071375       0.000465
 2346   0.015260    -9.373203     -8.866698       0.071375       0.000465
 2347   0.015257    -9.390037     -8.883624       0.071375       0.000465
 2348   0.015254    -9.406953     -8.900687       0.071375       0.000465
 2349   0.015256    -9.423949     -8.917855       0.071375       0.000465
 2350   0.015280    -9.441080     -8.935194       0.071375       0.000465
 2351   0.015276    -9.458231     -8.952522       0.071375       0.000465
 2352   0.015274    -9.475350     -8.969777       0.071375       0.000465
 2353   0.015270    -9.492373     -8.986889       0.071375       0.000465
 2354   0.015265    -9.509326     -9.003916       0.071375       0.000465
 2355   0.015262    -9.526159     -9.020789       0.071375       0.000465
 2356   0.015259    -9.542915     -9.037574       0.071375       0.000465
 2357   0.015256    -9.559540     -9.054191       0.071375       0.000465
 2358   0.015253    -9.575991     -9.070582       0.071375       0.000465
 2359   0.015253    -9.592154     -9.086595       0.071375       0.000465
 2360   0.015249    -9.608008     -9.102228       0.071375       0.000465
 2361   0.015246    -9.623526     -9.117461       0.071375       0.000465
 2362   0.015247    -9.638890     -9.132571       0.071375       0.000465
 2363   0.015244    -9.654335     -9.147872       0.071375       0.000465
 2364   0.015248    -9.669957     -9.163439       0.071375       0.000465
 2365   0.015258    -9.685447     -9.178772       0.071375       0.000465
 2366   0.015276    -9.700419     -9.193351       0.071375       0.000465
 2367   0.015288    -9.714188     -9.206288       0.071375       0.000465
 2368   0.015286    -9.725244     -9.215601       0.071375       0.000465
 2369   0.015281    -9.734029     -9.222211       0.071375       0.000465
 2370   0.015282    -9.745766     -9.233648       0.071375       0.000465

---------------------- Local Time Stepping Summary ----------------------
MG level: 0 -> Min. DT: 0.000497788. Max. DT: 3.62883. CFL: 10.
MG level: 1 -> Min. DT: 0.000799885. Max. DT: 5.71125. CFL: 8.35917.
MG level: 2 -> Min. DT: 0.00155929. Max. DT: 8.31093. CFL: 7.39444.
-------------------------------------------------------------------------

----------------------- Residual Evolution Summary ----------------------
log10[Maximum residual]: -8.54698.
Maximum residual point 582, located at (0.528948, 0.075882).
-------------------------------------------------------------------------

 Iter    Time(s)     Res[Rho]     Res[RhoE]      CL(Total)      CD(Total)
 2371   0.015278    -9.759195     -9.247611       0.071375       0.000465
 2372   0.015278    -9.774192     -9.263305       0.071375       0.000465
 2373   0.015276    -9.786440     -9.275006       0.071375       0.000465
 2374   0.015274    -9.798066     -9.285580       0.071375       0.000465
 2375   0.015285    -9.795044     -9.276560       0.071375       0.000465
 2376   0.015308    -9.809202     -9.292704       0.071375       0.000465
 2377   0.015307    -9.832436     -9.321958       0.071375       0.000465
 2378   0.015305    -9.858414     -9.352246       0.071375       0.000465
 2379   0.015301    -9.872144     -9.362959       0.071375       0.000465
 2380   0.015297    -9.893242     -9.385114       0.071375       0.000465
 2381   0.015294    -9.910528     -9.402648       0.071375       0.000465
 2382   0.015291    -9.922789     -9.412533       0.071375       0.000465
 2383   0.015289    -9.935390     -9.424881       0.071375       0.000465
 2384   0.015286    -9.955227     -9.447023       0.071375       0.000465
 2385   0.015286    -9.968391     -9.459089       0.071375       0.000465
 2386   0.015285    -9.987861     -9.479752       0.071375       0.000465
 2387   0.015282    -9.999521     -9.489240       0.071375       0.000465
 2388   0.015283   -10.007312     -9.494141       0.071375       0.000465
 2389   0.015281   -10.028557     -9.518826       0.071375       0.000465
 2390   0.015283   -10.042237     -9.531522       0.071375       0.000465
 2391   0.015281   -10.064103     -9.556259       0.071375       0.000465
 2392   0.015283   -10.083047     -9.576044       0.071375       0.000465
 2393   0.015279   -10.101965     -9.594951       0.071375       0.000465
 2394   0.015276   -10.108936     -9.597215       0.071375       0.000465
 2395   0.015274   -10.126396     -9.616519       0.071375       0.000465
 2396   0.015271   -10.146781     -9.639584       0.071375       0.000465
 2397   0.015270   -10.165033     -9.657397       0.071375       0.000465
 2398   0.015267   -10.157438     -9.640050       0.071375       0.000465
 2399   0.015267   -10.169240     -9.653394       0.071375       0.000465
 2400   0.015267   -10.183287     -9.671473       0.071375       0.000465
 2401   0.015264   -10.214011     -9.708599       0.071375       0.000465
 2402   0.015260   -10.236545     -9.731172       0.071375       0.000465
 2403   0.015258   -10.244509     -9.733221       0.071375       0.000465
 2404   0.015255   -10.274960     -9.770761       0.071375       0.000465
 2405   0.015253   -10.278884     -9.767862       0.071375       0.000465
 2406   0.015251   -10.288253     -9.775105       0.071375       0.000465
 2407   0.015248   -10.316907     -9.811216       0.071375       0.000465
 2408   0.015248   -10.319103     -9.806666       0.071375       0.000465
 2409   0.015245   -10.351190     -9.846727       0.071375       0.000465
 2410   0.015247   -10.358206     -9.847842       0.071375       0.000465

---------------------- Local Time Stepping Summary ----------------------
MG level: 0 -> Min. DT: 0.000497788. Max. DT: 3.62883. CFL: 10.
MG level: 1 -> Min. DT: 0.000799885. Max. DT: 5.71125. CFL: 8.35917.
MG level: 2 -> Min. DT: 0.00155929. Max. DT: 8.31093. CFL: 7.39444.
-------------------------------------------------------------------------

----------------------- Residual Evolution Summary ----------------------
log10[Maximum residual]: -9.10651.
Maximum residual point 1072, located at (0.515667, 0.13607).
-------------------------------------------------------------------------

 Iter    Time(s)     Res[Rho]     Res[RhoE]      CL(Total)      CD(Total)
 2411   0.015246   -10.351346     -9.833005       0.071375       0.000465
 2412   0.015245   -10.363287     -9.847409       0.071375       0.000465
 2413   0.015243   -10.379748     -9.867715       0.071375       0.000465
 2414   0.015240   -10.417559     -9.915019       0.071375       0.000465
 2415   0.015245   -10.440092     -9.934929       0.071375       0.000465
 2416   0.015259   -10.435952     -9.919520       0.071375       0.000465
 2417   0.015256   -10.466376     -9.958749       0.071375       0.000465
 2418   0.015257   -10.474068     -9.963438       0.071375       0.000465
 2419   0.015256   -10.476829     -9.960798       0.071375       0.000465
 2420   0.015254   -10.512561    -10.006765       0.071375       0.000465
 2421   0.015250   -10.534447    -10.028943       0.071375       0.000465
 2422   0.015250   -10.553609    -10.045767       0.071375       0.000465
 2423   0.015247   -10.577848    -10.071663       0.071375       0.000465
 2424   0.015247   -10.580241    -10.066503       0.071375       0.000465
 2425   0.015245   -10.612629    -10.107435       0.071375       0.000465
 2426   0.015243   -10.628348    -10.120397       0.071375       0.000465
 2427   0.015240   -10.636274    -10.123200       0.071375       0.000465
 2428   0.015237   -10.660099    -10.150967       0.071375       0.000465
 2429   0.015235   -10.681674    -10.173975       0.071375       0.000465
 2430   0.015237   -10.700998    -10.192333       0.071375       0.000465
 2431   0.015247   -10.715607    -10.204495       0.071375       0.000465
 2432   0.015255   -10.728917    -10.216237       0.071375       0.000465
 2433   0.015270   -10.754292    -10.246242       0.071375       0.000465
 2434   0.015270   -10.770072    -10.259848       0.071375       0.000465
 2435   0.015269   -10.779690    -10.265408       0.071375       0.000465
 2436   0.015267   -10.800590    -10.289220       0.071375       0.000465
 2437   0.015265   -10.821540    -10.311837       0.071375       0.000465
 2438   0.015264   -10.838348    -10.327167       0.071375       0.000465
 2439   0.015262   -10.854147    -10.341789       0.071375       0.000465
 2440   0.015259   -10.873173    -10.361824       0.071375       0.000465
 2441   0.015256   -10.892663    -10.381931       0.071375       0.000465
 2442   0.015253   -10.907356    -10.394653       0.071375       0.000465
 2443   0.015251   -10.920324    -10.405794       0.071375       0.000465
 2444   0.015249   -10.940451    -10.428068       0.071375       0.000465
 2445   0.015249   -10.958768    -10.446610       0.071375       0.000465
 2446   0.015246   -10.973588    -10.459711       0.071375       0.000465
 2447   0.015244   -10.991032    -10.477407       0.071375       0.000465
 2448   0.015242   -11.009527    -10.496559       0.071375       0.000465
 2449   0.015239   -11.026572    -10.513099       0.071375       0.000465
 2450   0.015238   -11.042161    -10.527686       0.071375       0.000465

---------------------- Local Time Stepping Summary ----------------------
MG level: 0 -> Min. DT: 0.000497788. Max. DT: 3.62883. CFL: 10.
MG level: 1 -> Min. DT: 0.000799885. Max. DT: 5.71125. CFL: 8.35917.
MG level: 2 -> Min. DT: 0.00155929. Max. DT: 8.31093. CFL: 7.39444.
-------------------------------------------------------------------------

----------------------- Residual Evolution Summary ----------------------
log10[Maximum residual]: -9.79981.
Maximum residual point 357, located at (0.520312, 0.0602135).
-------------------------------------------------------------------------

 Iter    Time(s)     Res[Rho]     Res[RhoE]      CL(Total)      CD(Total)
 2451   0.015236   -11.059677    -10.545491       0.071375       0.000465
 2452   0.015234   -11.077146    -10.563035       0.071375       0.000465
 2453   0.015232   -11.094778    -10.580606       0.071375       0.000465
 2454   0.015229   -11.110912    -10.596010       0.071375       0.000465
 2455   0.015231   -11.127762    -10.612700       0.071375       0.000465
 2456   0.015235   -11.144014    -10.628563       0.071375       0.000465
 2457   0.015235   -11.161176    -10.645746       0.071375       0.000465
 2458   0.015234   -11.178115    -10.662520       0.071375       0.000465
 2459   0.015233   -11.193679    -10.677302       0.071375       0.000465
 2460   0.015231   -11.210954    -10.694775       0.071375       0.000465
 2461   0.015229   -11.229643    -10.714104       0.071375       0.000465
 2462   0.015227   -11.243086    -10.725627       0.071375       0.000465
 2463   0.015225   -11.259264    -10.741698       0.071375       0.000465
 2464   0.015224   -11.280458    -10.764976       0.071375       0.000465
 2465   0.015223   -11.295560    -10.778573       0.071375       0.000465
 2466   0.015223   -11.307093    -10.787620       0.071375       0.000465
 2467   0.015224   -11.326593    -10.808954       0.071375       0.000465
 2468   0.015222   -11.348693    -10.833267       0.071375       0.000465
 2469   0.015223   -11.361620    -10.843378       0.071375       0.000465
 2470   0.015222   -11.374784    -10.854888       0.071375       0.000465
 2471   0.015221   -11.396165    -10.878819       0.071375       0.000465
 2472   0.015221   -11.414501    -10.897368       0.071375       0.000465
 2473   0.015227   -11.425140    -10.904739       0.071375       0.000465
 2474   0.015227   -11.439796    -10.918946       0.071375       0.000465
 2475   0.015229   -11.462619    -10.944992       0.071375       0.000465
 2476   0.015231   -11.480588    -10.962739       0.071375       0.000465
 2477   0.015231   -11.492543    -10.971908       0.071375       0.000465
 2478   0.015232   -11.512351    -10.993146       0.071375       0.000465
 2479   0.015232   -11.534528    -11.017425       0.071375       0.000465
 2480   0.015235   -11.545868    -11.025557       0.071375       0.000465
 2481   0.015244   -11.557979    -11.035783       0.071375       0.000465
 2482   0.015249   -11.581299    -11.062501       0.071375       0.000465

-------------------------- File Output Summary --------------------------
Writing comma-separated values (CSV) surface files.
Merging coordinates in the Master node.
Merging solution in the Master node.
Writing SU2 native restart file.
Writing the forces breakdown file.
-------------------------------------------------------------------------

History file, closed.

------------------------- Solver Postprocessing -------------------------
Deleted CNumerics container.
Deleted CIntegration container.
Deleted CSolver container.
Deleted CIteration container.
Deleted CInterpolator container.
Deleted CTransfer container.
Deleted CGeometry container.
Deleted CFreeFormDefBox class.
Deleted CSurfaceMovement class.
Deleted CVolumetricMovement class.
Deleted CConfig container.
Deleted COutput class.
-------------------------------------------------------------------------

Completed in 6.030273 seconds on 8 cores.

------------------------- Exit Success (SU2_CFD) ------------------------


-------------------------------------------------------------------------
|    ___ _   _ ___                                                      |
|   / __| | | |_  )   Release 5.0.0  "Raven"                            |
|   \__ \ |_| |/ /                                                      |
|   |___/\___//___|   Suite (Solution Exporting Code)                   |
|                                                                       |
-------------------------------------------------------------------------
| SU2 Original Developers: Dr. Francisco D. Palacios.                   |
|                          Dr. Thomas D. Economon.                      |
-------------------------------------------------------------------------
| SU2 Developers:                                                       |
| - Prof. Juan J. Alonso's group at Stanford University.                |
| - Prof. Piero Colonna's group at Delft University of Technology.      |
| - Prof. Nicolas R. Gauger's group at Kaiserslautern U. of Technology. |
| - Prof. Alberto Guardone's group at Polytechnic University of Milan.  |
| - Prof. Rafael Palacios' group at Imperial College London.            |
| - Prof. Edwin van der Weide's group at the University of Twente.      |
| - Prof. Vincent Terrapon's group at the University of Liege.          |
-------------------------------------------------------------------------
| Copyright (C) 2012-2017 SU2, the open-source CFD code.                |
|                                                                       |
| SU2 is free software; you can redistribute it and/or                  |
| modify it under the terms of the GNU Lesser General Public            |
| License as published by the Free Software Foundation; either          |
| version 2.1 of the License, or (at your option) any later version.    |
|                                                                       |
| SU2 is distributed in the hope that it will be useful,                |
| but WITHOUT ANY WARRANTY; without even the implied warranty of        |
| MERCHANTABILITY or FITNESS FOR A PARTICULAR PURPOSE. See the GNU      |
| Lesser General Public License for more details.                       |
|                                                                       |
| You should have received a copy of the GNU Lesser General Public      |
| License along with SU2. If not, see <http://www.gnu.org/licenses/>.   |
-------------------------------------------------------------------------

------------------------ Physical Case Definition -----------------------
Input mesh file name: mesh_NACA0012_inv_deform.su2

-------------------------- Output Information ---------------------------
The output file format is Tecplot ASCII (.dat).
Flow variables file name: flow.

------------------- Config File Boundary Information --------------------
Euler wall boundary marker(s): airfoil.
Far-field boundary marker(s): farfield.

---------------------- Read Grid File Information -----------------------
Two dimensional problem.
5233 points before parallel partitioning.
Performing linear partitioning of the grid nodes.
10216 interior elements before parallel partitioning.
Calling the partitioning functions.
Building the graph adjacency structure.
Distributing elements across all ranks.
2 surface markers.
200 boundary elements in index 0 (Marker = airfoil).
50 boundary elements in index 1 (Marker = farfield).
Calling ParMETIS...
Finished partitioning using ParMETIS (547 edge cuts).
Communicating partition data and creating halo layers.
10763 interior elements including halo cells. 
10763 triangles.
5796 vertices including ghost points. 
Establishing MPI communication patterns.
Identify vertices.

------------------------- Solution Postprocessing -----------------------
Reading and storing the solution from restart_flow.dat.
Merging connectivities in the Master node.
Merging solution in the Master node.
Writing Tecplot ASCII file (volume grid).
Writing Tecplot ASCII file (surface grid).

Completed in 0.101937 seconds on 8 cores.

------------------------- Exit Success (SU2_SOL) ------------------------

