
-------------------------------------------------------------------------
|    ___ _   _ ___                                                      |
|   / __| | | |_  )   Release 5.0.0  "Raven"                            |
|   \__ \ |_| |/ /                                                      |
|   |___/\___//___|   Suite (Mesh Deformation Code)                     |
|                                                                       |
-------------------------------------------------------------------------
| SU2 Original Developers: Dr. Francisco D. Palacios.                   |
|                          Dr. Thomas D. Economon.                      |
-------------------------------------------------------------------------
| SU2 Developers:                                                       |
| - Prof. Juan J. Alonso's group at Stanford University.                |
| - Prof. Piero Colonna's group at Delft University of Technology.      |
| - Prof. Nicolas R. Gauger's group at Kaiserslautern U. of Technology. |
| - Prof. Alberto Guardone's group at Polytechnic University of Milan.  |
| - Prof. Rafael Palacios' group at Imperial College London.            |
| - Prof. Edwin van der Weide's group at the University of Twente.      |
| - Prof. Vincent Terrapon's group at the University of Liege.          |
-------------------------------------------------------------------------
| Copyright (C) 2012-2017 SU2, the open-source CFD code.                |
|                                                                       |
| SU2 is free software; you can redistribute it and/or                  |
| modify it under the terms of the GNU Lesser General Public            |
| License as published by the Free Software Foundation; either          |
| version 2.1 of the License, or (at your option) any later version.    |
|                                                                       |
| SU2 is distributed in the hope that it will be useful,                |
| but WITHOUT ANY WARRANTY; without even the implied warranty of        |
| MERCHANTABILITY or FITNESS FOR A PARTICULAR PURPOSE. See the GNU      |
| Lesser General Public License for more details.                       |
|                                                                       |
| You should have received a copy of the GNU Lesser General Public      |
| License along with SU2. If not, see <http://www.gnu.org/licenses/>.   |
-------------------------------------------------------------------------

------------------------ Physical Case Definition -----------------------
Input mesh file name: mesh_NACA0012_inv.su2

---------------------- Grid deformation parameters ----------------------
Grid deformation using a linear elasticity method.
Design variables definition (markers <-> value <-> param):
Hicks Henne <-> airfoil <-> 0.000274807 <-> ( 0, 0.05 )
Hicks Henne <-> airfoil <-> -9.18048e-05 <-> ( 0, 0.1 )
Hicks Henne <-> airfoil <-> -0.000331442 <-> ( 0, 0.15 )
Hicks Henne <-> airfoil <-> -0.000476056 <-> ( 0, 0.2 )
Hicks Henne <-> airfoil <-> -0.000522637 <-> ( 0, 0.25 )
Hicks Henne <-> airfoil <-> -0.000457222 <-> ( 0, 0.3 )
Hicks Henne <-> airfoil <-> -0.000272493 <-> ( 0, 0.35 )
Hicks Henne <-> airfoil <-> 1.77878e-05 <-> ( 0, 0.4 )
Hicks Henne <-> airfoil <-> 0.000370689 <-> ( 0, 0.45 )
Hicks Henne <-> airfoil <-> 0.000717994 <-> ( 0, 0.5 )
Hicks Henne <-> airfoil <-> 0.000986219 <-> ( 0, 0.55 )
Hicks Henne <-> airfoil <-> 0.00112942 <-> ( 0, 0.6 )
Hicks Henne <-> airfoil <-> 0.00115883 <-> ( 0, 0.65 )
Hicks Henne <-> airfoil <-> 0.00114409 <-> ( 0, 0.7 )
Hicks Henne <-> airfoil <-> 0.00117216 <-> ( 0, 0.75 )
Hicks Henne <-> airfoil <-> 0.00129212 <-> ( 0, 0.8 )
Hicks Henne <-> airfoil <-> 0.00151345 <-> ( 0, 0.85 )
Hicks Henne <-> airfoil <-> 0.00188244 <-> ( 0, 0.9 )
Hicks Henne <-> airfoil <-> 0.0026155 <-> ( 0, 0.95 )
Hicks Henne <-> airfoil <-> -0.00267706 <-> ( 1, 0.05 )
Hicks Henne <-> airfoil <-> -0.00349387 <-> ( 1, 0.1 )
Hicks Henne <-> airfoil <-> -0.00351749 <-> ( 1, 0.15 )
Hicks Henne <-> airfoil <-> -0.00317564 <-> ( 1, 0.2 )
Hicks Henne <-> airfoil <-> -0.00263728 <-> ( 1, 0.25 )
Hicks Henne <-> airfoil <-> -0.00200128 <-> ( 1, 0.3 )
Hicks Henne <-> airfoil <-> -0.00134515 <-> ( 1, 0.35 )
Hicks Henne <-> airfoil <-> -0.000734661 <-> ( 1, 0.4 )
Hicks Henne <-> airfoil <-> -0.00022165 <-> ( 1, 0.45 )
Hicks Henne <-> airfoil <-> 0.000159648 <-> ( 1, 0.5 )
Hicks Henne <-> airfoil <-> 0.00039302 <-> ( 1, 0.55 )
Hicks Henne <-> airfoil <-> 0.000475251 <-> ( 1, 0.6 )
Hicks Henne <-> airfoil <-> 0.000406405 <-> ( 1, 0.65 )
Hicks Henne <-> airfoil <-> 0.000181931 <-> ( 1, 0.7 )
Hicks Henne <-> airfoil <-> -0.000196962 <-> ( 1, 0.75 )
Hicks Henne <-> airfoil <-> -0.000679445 <-> ( 1, 0.8 )
Hicks Henne <-> airfoil <-> -0.00113792 <-> ( 1, 0.85 )
Hicks Henne <-> airfoil <-> -0.00151914 <-> ( 1, 0.9 )
Hicks Henne <-> airfoil <-> -0.00211679 <-> ( 1, 0.95 )

-------------------------- Output Information ---------------------------
Output mesh file name: mesh_NACA0012_inv_deform.su2. 
No file for visualizing the deformation.
Cell stiffness scaled by inverse of the cell volume.

------------------- Config File Boundary Information --------------------
Euler wall boundary marker(s): airfoil.
Far-field boundary marker(s): farfield.

---------------------- Read Grid File Information -----------------------
Two dimensional problem.
5233 points.
2 surface markers.
200 boundary elements in index 0 (Marker = airfoil).
50 boundary elements in index 1 (Marker = farfield).
10216 triangles.

----------------------- Preprocessing computations ----------------------
Setting local point connectivity.
Checking the numerical grid orientation.
Identify edges and vertices.
Computing centers of gravity.
Setting the bound control volume structure.

------------------------- Surface grid deformation ----------------------
Performing the deformation of the surface grid.

----------------------- Volumetric grid deformation ---------------------
Performing the deformation of the volumetric grid.
Computing volumes of the grid elements.
Min. volume: 4.14044e-08, max. volume: 4.10267.

# LU_SGS preconditioner.

# FGMRES residual history
# Residual tolerance target = 4.14044e-11
# Initial residual norm     = 0.00541152
     0     1
     50     0.000112694
     100     2.338e-09
# FGMRES final (true) residual:
# Iteration = 123: |res|/|res0| = 4.10645e-11.

Computing volumes of the grid elements.
Non-linear iter.: 1/1. Linear iter.: 123. Min. area: 4.17721e-08. Error: 2.22221e-13.

----------------------- Write deformed grid files -----------------------
Merging grid connectivity.
Merging grid coordinates.
Writing .su2 file.
Adding any FFD information to the SU2 file.

Completed in 0.436162 seconds on 1 core.

------------------------- Exit Success (SU2_DEF) ------------------------

