
-------------------------------------------------------------------------
|    ___ _   _ ___                                                      |
|   / __| | | |_  )   Release 5.0.0  "Raven"                            |
|   \__ \ |_| |/ /                                                      |
|   |___/\___//___|   Suite (Computational Fluid Dynamics Code)         |
|                                                                       |
-------------------------------------------------------------------------
| SU2 Original Developers: Dr. Francisco D. Palacios.                   |
|                          Dr. Thomas D. Economon.                      |
-------------------------------------------------------------------------
| SU2 Developers:                                                       |
| - Prof. Juan J. Alonso's group at Stanford University.                |
| - Prof. Piero Colonna's group at Delft University of Technology.      |
| - Prof. Nicolas R. Gauger's group at Kaiserslautern U. of Technology. |
| - Prof. Alberto Guardone's group at Polytechnic University of Milan.  |
| - Prof. Rafael Palacios' group at Imperial College London.            |
| - Prof. Edwin van der Weide's group at the University of Twente.      |
| - Prof. Vincent Terrapon's group at the University of Liege.          |
-------------------------------------------------------------------------
| Copyright (C) 2012-2017 SU2, the open-source CFD code.                |
|                                                                       |
| SU2 is free software; you can redistribute it and/or                  |
| modify it under the terms of the GNU Lesser General Public            |
| License as published by the Free Software Foundation; either          |
| version 2.1 of the License, or (at your option) any later version.    |
|                                                                       |
| SU2 is distributed in the hope that it will be useful,                |
| but WITHOUT ANY WARRANTY; without even the implied warranty of        |
| MERCHANTABILITY or FITNESS FOR A PARTICULAR PURPOSE. See the GNU      |
| Lesser General Public License for more details.                       |
|                                                                       |
| You should have received a copy of the GNU Lesser General Public      |
| License along with SU2. If not, see <http://www.gnu.org/licenses/>.   |
-------------------------------------------------------------------------

------------------------ Physical Case Definition -----------------------
Compressible Euler equations.
Mach number: 0.8.
Angle of attack (AoA): 1.25 deg, and angle of sideslip (AoS): 0 deg.
Read flow solution from: solution_flow.dat.
Non-Dimensional simulation (P=1.0, Rho=1.0, T=1.0 at the farfield).
The reference length/area (force coefficient) is 1.
The reference length (moment computation) is 1.
Reference origin (moment computation) is (0.25, 0, 0).
Surface(s) where the force coefficients are evaluated: airfoil.
Surface(s) plotted in the output file: airfoil.
Surface(s) affected by the design variables: airfoil.
Input mesh file name: mesh_NACA0012_inv_deform.su2

---------------------- Space Numerical Integration ----------------------
Jameson-Schmidt-Turkel scheme for the flow inviscid terms.
JST viscous coefficients (1st, 2nd & 4th): 0.15, 0.5, 0.02.
The method includes a grid stretching correction (p = 0.3).
Second order integration.
Gradient computation using Green-Gauss theorem.

---------------------- Time Numerical Integration -----------------------
Local time stepping (steady state simulation).
Euler implicit method for the flow equations.
V Multigrid Cycle, with 2 multigrid levels.
Damping factor for the residual restriction: 1.
Damping factor for the correction prolongation: 1.
No CFL adaptation.
Multigrid Level:                       0     1     2
Courant-Friedrichs-Lewy number:       10
MG PreSmooth coefficients:             1     2     3
MG PostSmooth coefficients:            0     0     0
MG CorrecSmooth coefficients:          0     0     0

------------------------- Convergence Criteria --------------------------
Maximum number of iterations: 1000.
Reduce the density residual 6 orders of magnitude.
The minimum bound for the density residual is 10^(-13).
Start convergence criteria at iteration 10.

-------------------------- Output Information ---------------------------
Writing a flow solution every 250 iterations.
Writing the convergence history every 1 iterations.
The output file format is Tecplot ASCII (.dat).
Convergence history file name: history_direct.
Forces breakdown file name: forces_breakdown.dat.
Surface flow coefficients file name: surface_flow.
Flow variables file name: flow.
Restart flow file name: restart_flow.dat.

------------------- Config File Boundary Information --------------------
Euler wall boundary marker(s): airfoil.
Far-field boundary marker(s): farfield.

---------------------- Read Grid File Information -----------------------
Two dimensional problem.
5233 points before parallel partitioning.
Performing linear partitioning of the grid nodes.
10216 interior elements before parallel partitioning.
Calling the partitioning functions.
Building the graph adjacency structure.
Distributing elements across all ranks.
2 surface markers.
200 boundary elements in index 0 (Marker = airfoil).
50 boundary elements in index 1 (Marker = farfield).
Calling ParMETIS...
Finished partitioning using ParMETIS (547 edge cuts).
Communicating partition data and creating halo layers.
10763 interior elements including halo cells. 
10763 triangles.
5796 vertices including ghost points. 
Establishing MPI communication patterns.

------------------------- Geometry Preprocessing ------------------------
Setting point connectivity.
Renumbering points (Reverse Cuthill McKee Ordering).
Recomputing point connectivity.
Setting element connectivity.
Checking the numerical grid orientation.
Identifying edges and vertices.
Computing centers of gravity.
Setting the control volume structure.
Area of the computational grid: 1.3e+03.
Searching for the closest normal neighbors to the surfaces.
Compute the surface curvature.
Max K: 7.84e+03. Mean K: 35.7. Standard deviation K: 494.
Checking for periodicity.
Setting the multigrid structure.
MG level: 0 -> CVs: 5796. Agglomeration rate 1/1.00. CFL 10.
MG level: 1 -> CVs: 1800. Agglomeration rate 1/3.22. CFL 8.36.
MG level: 2 -> CVs: 626. Agglomeration rate 1/2.88. CFL 7.39.
Computing wall distances.
Wetted area = 2.03 m.
Area projection in the x-plane = 0.107 m, y-plane = 1 m.

------------------------- Driver information --------------------------
A Fluid driver has been instantiated.

------------------------ Iteration Preprocessing ------------------------
Zone 1: Euler/Navier-Stokes/RANS flow iteration.

------------------------- Solver Preprocessing --------------------------
Inviscid flow: Computing density based on free-stream
temperature and pressure using the ideal gas law.
Force coefficients computed using free-stream values.
-- Input conditions:
Fluid Model: STANDARD_AIR 
Specific gas constant: 287.058 N.m/kg.K.
Specific gas constant (non-dim): 1
Specific Heat Ratio: 1.4
Free-stream static pressure: 101325 Pa.
Free-stream total pressure: 154454 Pa.
Free-stream temperature: 288.15 K.
Free-stream density: 1.22498 kg/m^3.
Free-stream velocity: (272.173, 5.93883) m/s. Magnitude: 272.238 m/s (529.186 KTS).
Free-stream total energy per unit mass: 243846 m^2/s^2.
-- Reference values:
Reference specific gas constant: 287.058 N.m/kg.K.
Reference pressure: 101325 Pa.
Reference temperature: 288.15 K.
Reference density: 1.22498 kg/m^3.
Reference velocity: 287.603 m/s.
Reference energy per unit mass: 82715.8 m^2/s^2.
-- Resulting non-dimensional state:
Mach number (non-dim): 0.8
Specific gas constant (non-dim): 1
Free-stream temperature (non-dim): 1
Free-stream pressure (non-dim): 1
Free-stream density (non-dim): 1
Free-stream velocity (non-dim): (0.946348, 0.0206494). Magnitude: 0.946573
Free-stream total energy per unit mass (non-dim): 2.948

Initialize Jacobian structure (Euler). MG level: 0.
Initialize Jacobian structure (Euler). MG level: 1.
Initialize Jacobian structure (Euler). MG level: 2.

----------------- Integration and Numerics Preprocessing ----------------
Integration Preprocessing.
Numerics Preprocessing.

------------------------------ Begin Solver -----------------------------

---------------------- Local Time Stepping Summary ----------------------
MG level: 0 -> Min. DT: 0.000497851. Max. DT: 3.62895. CFL: 10.
MG level: 1 -> Min. DT: 0.000799289. Max. DT: 5.71171. CFL: 8.35917.
MG level: 2 -> Min. DT: 0.00156308. Max. DT: 8.31145. CFL: 7.39444.
-------------------------------------------------------------------------

----------------------- Residual Evolution Summary ----------------------
log10[Maximum residual]: -3.32995.
Maximum residual point 146, located at (0.44878, 0.046863).
-------------------------------------------------------------------------

 Iter    Time(s)     Res[Rho]     Res[RhoE]      CL(Total)      CD(Total)
 1661   0.015549    -4.467173     -3.870793       0.028301       0.001784
 1662   0.015867    -4.528970     -3.927033       0.034509       0.001701
 1663   0.015629    -4.569764     -3.974951       0.037899       0.002241
 1664   0.016172    -4.601375     -4.006573       0.040532       0.002373
 1665   0.015882    -4.575802     -3.983092       0.043640       0.002355
 1666   0.015839    -4.541888     -3.949261       0.046241       0.002301
 1667   0.015803    -4.511439     -3.917392       0.048676       0.002214
 1668   0.015964    -4.488788     -3.893376       0.050908       0.002092
 1669   0.015975    -4.471652     -3.875153       0.052898       0.001960
 1670   0.016023    -4.458388     -3.861042       0.054623       0.001833
 1671   0.016378    -4.448048     -3.849943       0.056064       0.001714
 1672   0.016578    -4.439796     -3.840839       0.057245       0.001602
 1673   0.016481    -4.432875     -3.832850       0.058204       0.001500
 1674   0.016459    -4.426765     -3.825399       0.058971       0.001406
 1675   0.016414    -4.421123     -3.818122       0.059580       0.001322
 1676   0.016485    -4.415683     -3.810760       0.060059       0.001246
 1677   0.016445    -4.410253     -3.803147       0.060438       0.001179
 1678   0.016411    -4.404711     -3.795204       0.060739       0.001122
 1679   0.016421    -4.399075     -3.787007       0.060983       0.001074
 1680   0.016352    -4.393491     -3.778779       0.061187       0.001036
 1681   0.016327    -4.388387     -3.771033       0.061366       0.001007
 1682   0.016295    -4.384635     -3.764747       0.061534       0.000989
 1683   0.016328    -4.383867     -3.761698       0.061703       0.000981
 1684   0.016291    -4.389348     -3.765394       0.061889       0.000985
 1685   0.016251    -4.408529     -3.783867       0.062113       0.001005
 1686   0.016223    -4.464170     -3.842149       0.062313       0.001035
 1687   0.016204    -4.647947     -4.052015       0.062724       0.000963
 1688   0.016194    -4.683318     -4.094129       0.063724       0.000960
 1689   0.016189    -4.702701     -4.118188       0.064442       0.001042
 1690   0.016153    -4.808394     -4.255436       0.065457       0.001055
 1691   0.016358    -4.842999     -4.293376       0.066281       0.001006
 1692   0.016629    -4.833461     -4.274118       0.067097       0.000995
 1693   0.016964    -4.862910     -4.306522       0.068134       0.001028
 1694   0.017067    -4.914995     -4.372736       0.069026       0.000998
 1695   0.017080    -4.915813     -4.369508       0.069809       0.000969
 1696   0.017059    -4.935506     -4.392210       0.070586       0.000950
 1697   0.017044    -4.965112     -4.430211       0.071235       0.000906
 1698   0.017064    -4.949788     -4.406963       0.071721       0.000853
 1699   0.017157    -4.943734     -4.397056       0.072123       0.000811
 1700   0.017198    -4.934971     -4.383911       0.072433       0.000766

---------------------- Local Time Stepping Summary ----------------------
MG level: 0 -> Min. DT: 0.000498324. Max. DT: 3.62892. CFL: 10.
MG level: 1 -> Min. DT: 0.00079984. Max. DT: 5.71131. CFL: 8.35917.
MG level: 2 -> Min. DT: 0.00156144. Max. DT: 8.31101. CFL: 7.39444.
-------------------------------------------------------------------------

----------------------- Residual Evolution Summary ----------------------
log10[Maximum residual]: -3.82316.
Maximum residual point 408, located at (0.614367, 0.0556038).
-------------------------------------------------------------------------

 Iter    Time(s)     Res[Rho]     Res[RhoE]      CL(Total)      CD(Total)
 1701   0.017187    -4.934024     -4.380129       0.072670       0.000720
 1702   0.017197    -4.935534     -4.379087       0.072847       0.000677
 1703   0.017166    -4.937081     -4.378133       0.072972       0.000637
 1704   0.017352    -4.940290     -4.379629       0.073045       0.000596
 1705   0.017312    -4.946464     -4.385313       0.073072       0.000556
 1706   0.017285    -4.954839     -4.394025       0.073060       0.000520
 1707   0.017385    -4.964166     -4.403927       0.073014       0.000488
 1708   0.017351    -4.973721     -4.413992       0.072941       0.000460
 1709   0.017338    -4.983127     -4.423724       0.072844       0.000438
 1710   0.017321    -4.992390     -4.433141       0.072729       0.000422
 1711   0.017278    -5.001629     -4.442424       0.072601       0.000410
 1712   0.017251    -5.010900     -4.451658       0.072464       0.000404
 1713   0.017225    -5.020367     -4.461071       0.072323       0.000403
 1714   0.017205    -5.030379     -4.471139       0.072180       0.000404
 1715   0.017191    -5.041342     -4.482413       0.072039       0.000409
 1716   0.017175    -5.053420     -4.495135       0.071901       0.000414
 1717   0.017321    -5.066717     -4.509441       0.071768       0.000420
 1718   0.017301    -5.081372     -4.525505       0.071641       0.000426
 1719   0.017281    -5.097495     -4.543478       0.071521       0.000432
 1720   0.017250    -5.115229     -4.563534       0.071409       0.000437
 1721   0.017217    -5.134897     -4.586043       0.071305       0.000441
 1722   0.017188    -5.156781     -4.611337       0.071210       0.000445
 1723   0.017153    -5.181221     -4.639793       0.071124       0.000448
 1724   0.017122    -5.208378     -4.671558       0.071049       0.000452
 1725   0.017089    -5.238390     -4.706751       0.070983       0.000455
 1726   0.017056    -5.271257     -4.745244       0.070927       0.000458
 1727   0.017027    -5.305511     -4.784913       0.070879       0.000460
 1728   0.017000    -5.331650     -4.812657       0.070833       0.000461
 1729   0.017028    -5.320769     -4.791426       0.070817       0.000465
 1730   0.017058    -5.299533     -4.761135       0.070828       0.000473
 1731   0.017076    -5.278254     -4.734586       0.070859       0.000480
 1732   0.017108    -5.264330     -4.718444       0.070903       0.000485
 1733   0.017116    -5.257007     -4.709831       0.070958       0.000491
 1734   0.017138    -5.255160     -4.706968       0.071020       0.000497
 1735   0.017124    -5.258211     -4.709376       0.071084       0.000502
 1736   0.017101    -5.265728     -4.716795       0.071149       0.000508
 1737   0.017093    -5.276268     -4.727692       0.071213       0.000514
 1738   0.017147    -5.288582     -4.740779       0.071277       0.000521
 1739   0.017189    -5.301640     -4.754871       0.071340       0.000528
 1740   0.017209    -5.314239     -4.768428       0.071403       0.000535

---------------------- Local Time Stepping Summary ----------------------
MG level: 0 -> Min. DT: 0.000498075. Max. DT: 3.62892. CFL: 10.
MG level: 1 -> Min. DT: 0.00079967. Max. DT: 5.71133. CFL: 8.35917.
MG level: 2 -> Min. DT: 0.00156133. Max. DT: 8.31103. CFL: 7.39444.
-------------------------------------------------------------------------

----------------------- Residual Evolution Summary ----------------------
log10[Maximum residual]: -4.29398.
Maximum residual point 1182, located at (0.628567, 0.128478).
-------------------------------------------------------------------------

 Iter    Time(s)     Res[Rho]     Res[RhoE]      CL(Total)      CD(Total)
 1741   0.017256    -5.325791     -4.780685       0.071467       0.000541
 1742   0.017246    -5.336291     -4.791653       0.071531       0.000547
 1743   0.017271    -5.345843     -4.801465       0.071596       0.000551
 1744   0.017264    -5.354733     -4.810467       0.071660       0.000555
 1745   0.017256    -5.363309     -4.819084       0.071724       0.000557
 1746   0.017276    -5.371810     -4.827611       0.071787       0.000557
 1747   0.017362    -5.380504     -4.836391       0.071848       0.000556
 1748   0.017456    -5.389591     -4.845691       0.071907       0.000554
 1749   0.017475    -5.399234     -4.855718       0.071965       0.000552
 1750   0.017459    -5.409469     -4.866538       0.072022       0.000549
 1751   0.017434    -5.420368     -4.878237       0.072078       0.000547
 1752   0.017407    -5.432099     -4.891000       0.072132       0.000545
 1753   0.017384    -5.444761     -4.904917       0.072186       0.000543
 1754   0.017362    -5.458438     -4.920040       0.072239       0.000542
 1755   0.017366    -5.473059     -4.936242       0.072291       0.000541
 1756   0.017374    -5.488611     -4.953471       0.072343       0.000540
 1757   0.017379    -5.505096     -4.971695       0.072395       0.000540
 1758   0.017374    -5.522546     -4.990943       0.072447       0.000540
 1759   0.017357    -5.540809     -5.010984       0.072499       0.000540
 1760   0.017340    -5.559842     -5.031741       0.072552       0.000540
 1761   0.017332    -5.579425     -5.052968       0.072606       0.000540
 1762   0.017309    -5.599487     -5.074617       0.072662       0.000540
 1763   0.017318    -5.619730     -5.096248       0.072720       0.000541
 1764   0.017326    -5.639155     -5.116679       0.072780       0.000542
 1765   0.017375    -5.656189     -5.133923       0.072842       0.000543
 1766   0.017375    -5.669012     -5.145796       0.072902       0.000544
 1767   0.017383    -5.677561     -5.152623       0.072960       0.000544
 1768   0.017377    -5.682503     -5.155637       0.073015       0.000544
 1769   0.017358    -5.684867     -5.156141       0.073066       0.000544
 1770   0.017361    -5.686266     -5.156070       0.073115       0.000543
 1771   0.017388    -5.687735     -5.156491       0.073162       0.000543
 1772   0.017384    -5.689533     -5.157475       0.073206       0.000542
 1773   0.017368    -5.692317     -5.159730       0.073250       0.000542
 1774   0.017351    -5.697029     -5.164400       0.073292       0.000541
 1775   0.017333    -5.704400     -5.172345       0.073333       0.000541
 1776   0.017338    -5.714720     -5.183896       0.073371       0.000540
 1777   0.017340    -5.728324     -5.199475       0.073408       0.000539
 1778   0.017324    -5.745689     -5.219701       0.073444       0.000537
 1779   0.017312    -5.766851     -5.244575       0.073478       0.000536
 1780   0.017303    -5.790997     -5.272884       0.073512       0.000535

---------------------- Local Time Stepping Summary ----------------------
MG level: 0 -> Min. DT: 0.000498101. Max. DT: 3.62891. CFL: 10.
MG level: 1 -> Min. DT: 0.000799753. Max. DT: 5.71131. CFL: 8.35917.
MG level: 2 -> Min. DT: 0.00155995. Max. DT: 8.31101. CFL: 7.39444.
-------------------------------------------------------------------------

----------------------- Residual Evolution Summary ----------------------
log10[Maximum residual]: -4.67631.
Maximum residual point 817, located at (0.601216, 0.089649).
-------------------------------------------------------------------------

 Iter    Time(s)     Res[Rho]     Res[RhoE]      CL(Total)      CD(Total)
 1781   0.017295    -5.816258     -5.301997       0.073545       0.000533
 1782   0.017288    -5.840022     -5.328370       0.073578       0.000532
 1783   0.017271    -5.860035     -5.349174       0.073609       0.000531
 1784   0.017263    -5.875849     -5.364386       0.073640       0.000530
 1785   0.017249    -5.889449     -5.377269       0.073668       0.000529
 1786   0.017239    -5.903587     -5.391594       0.073696       0.000528
 1787   0.017228    -5.919729     -5.408846       0.073723       0.000528
 1788   0.017215    -5.937383     -5.427722       0.073748       0.000528
 1789   0.017204    -5.955830     -5.446995       0.073771       0.000528
 1790   0.017193    -5.974521     -5.466050       0.073793       0.000528
 1791   0.017185    -5.992465     -5.483740       0.073813       0.000529
 1792   0.017168    -6.009848     -5.500654       0.073832       0.000529
 1793   0.017162    -6.026813     -5.517125       0.073849       0.000529
 1794   0.017164    -6.043549     -5.533398       0.073864       0.000528
 1795   0.017153    -6.060168     -5.549554       0.073879       0.000528
 1796   0.017143    -6.076717     -5.565630       0.073893       0.000527
 1797   0.017134    -6.093192     -5.581665       0.073906       0.000526
 1798   0.017129    -6.109699     -5.597829       0.073920       0.000525
 1799   0.017123    -6.126330     -5.614262       0.073933       0.000524
 1800   0.017113    -6.143235     -5.631150       0.073946       0.000523
 1801   0.017106    -6.160272     -5.648193       0.073961       0.000522
 1802   0.017100    -6.176750     -5.664391       0.073977       0.000521
 1803   0.017094    -6.195481     -5.683751       0.073994       0.000521
 1804   0.017087    -6.213276     -5.701420       0.074013       0.000521
 1805   0.017081    -6.221276     -5.705189       0.074035       0.000521
 1806   0.017119    -6.247589     -5.737809       0.074056       0.000522
 1807   0.017188    -6.267832     -5.758858       0.074076       0.000522
 1808   0.017241    -6.286342     -5.776037       0.074097       0.000522
 1809   0.017234    -6.301639     -5.789652       0.074117       0.000522
 1810   0.017230    -6.314180     -5.800325       0.074137       0.000521
 1811   0.017226    -6.323562     -5.807435       0.074156       0.000521
 1812   0.017216    -6.342738     -5.829177       0.074176       0.000521
 1813   0.017203    -6.368813     -5.860606       0.074197       0.000521
 1814   0.017205    -6.387201     -5.878175       0.074217       0.000522
 1815   0.017219    -6.402952     -5.892258       0.074236       0.000522
 1816   0.017221    -6.419821     -5.909172       0.074255       0.000523
 1817   0.017217    -6.435140     -5.923953       0.074274       0.000523
 1818   0.017208    -6.451829     -5.941058       0.074291       0.000523
 1819   0.017196    -6.469450     -5.959335       0.074308       0.000523
 1820   0.017188    -6.486800     -5.976683       0.074324       0.000523

---------------------- Local Time Stepping Summary ----------------------
MG level: 0 -> Min. DT: 0.000497833. Max. DT: 3.62891. CFL: 10.
MG level: 1 -> Min. DT: 0.000799721. Max. DT: 5.7113. CFL: 8.35917.
MG level: 2 -> Min. DT: 0.00155933. Max. DT: 8.311. CFL: 7.39444.
-------------------------------------------------------------------------

----------------------- Residual Evolution Summary ----------------------
log10[Maximum residual]: -5.28677.
Maximum residual point 407, located at (0.551902, 0.0589427).
-------------------------------------------------------------------------

 Iter    Time(s)     Res[Rho]     Res[RhoE]      CL(Total)      CD(Total)
 1821   0.017177    -6.504256     -5.994007       0.074339       0.000523
 1822   0.017164    -6.519699     -6.008361       0.074354       0.000523
 1823   0.017160    -6.532768     -6.019649       0.074367       0.000522
 1824   0.017152    -6.547393     -6.033726       0.074381       0.000522
 1825   0.017166    -6.564959     -6.052029       0.074393       0.000521
 1826   0.017161    -6.582955     -6.070422       0.074405       0.000521
 1827   0.017149    -6.601436     -6.089213       0.074417       0.000520
 1828   0.017142    -6.620418     -6.108595       0.074428       0.000520
 1829   0.017132    -6.638688     -6.126790       0.074438       0.000520
 1830   0.017123    -6.656882     -6.144974       0.074448       0.000519
 1831   0.017124    -6.675009     -6.163166       0.074457       0.000519
 1832   0.017119    -6.693188     -6.181499       0.074465       0.000519
 1833   0.017118    -6.711346     -6.199822       0.074472       0.000518
 1834   0.017112    -6.728696     -6.217000       0.074479       0.000518
 1835   0.017108    -6.745207     -6.233142       0.074485       0.000518
 1836   0.017103    -6.760966     -6.248451       0.074491       0.000518
 1837   0.017101    -6.776265     -6.263385       0.074496       0.000517
 1838   0.017095    -6.791642     -6.278638       0.074501       0.000517
 1839   0.017088    -6.807029     -6.293960       0.074505       0.000517
 1840   0.017084    -6.822301     -6.309116       0.074509       0.000517
 1841   0.017076    -6.837061     -6.323566       0.074513       0.000516
 1842   0.017078    -6.850994     -6.336933       0.074517       0.000516
 1843   0.017082    -6.864041     -6.349208       0.074520       0.000516
 1844   0.017078    -6.876347     -6.360641       0.074524       0.000516
 1845   0.017070    -6.888231     -6.371672       0.074527       0.000516
 1846   0.017065    -6.900073     -6.382771       0.074530       0.000516
 1847   0.017059    -6.912156     -6.394244       0.074534       0.000516
 1848   0.017055    -6.924621     -6.406231       0.074537       0.000515
 1849   0.017050    -6.937606     -6.418879       0.074540       0.000515
 1850   0.017046    -6.951229     -6.432316       0.074543       0.000515
 1851   0.017040    -6.965581     -6.446627       0.074545       0.000515
 1852   0.017045    -6.980709     -6.461846       0.074548       0.000515
 1853   0.017039    -6.996629     -6.477979       0.074551       0.000515
 1854   0.017036    -7.013308     -6.494984       0.074554       0.000515
 1855   0.017033    -7.030679     -6.512767       0.074557       0.000515
 1856   0.017030    -7.048630     -6.531195       0.074560       0.000515
 1857   0.017026    -7.067114     -6.550226       0.074562       0.000515
 1858   0.017023    -7.086127     -6.569856       0.074565       0.000515
 1859   0.017018    -7.105563     -6.589932       0.074568       0.000515
 1860   0.017013    -7.125218     -6.610179       0.074571       0.000515

---------------------- Local Time Stepping Summary ----------------------
MG level: 0 -> Min. DT: 0.000497783. Max. DT: 3.62891. CFL: 10.
MG level: 1 -> Min. DT: 0.000799724. Max. DT: 5.7113. CFL: 8.35917.
MG level: 2 -> Min. DT: 0.00155924. Max. DT: 8.311. CFL: 7.39444.
-------------------------------------------------------------------------

----------------------- Residual Evolution Summary ----------------------
log10[Maximum residual]: -5.91663.
Maximum residual point 357, located at (0.520296, 0.0600268).
-------------------------------------------------------------------------

 Iter    Time(s)     Res[Rho]     Res[RhoE]      CL(Total)      CD(Total)
 1861   0.017010    -7.144729     -6.630136       0.074574       0.000515
 1862   0.017008    -7.163578     -6.649170       0.074577       0.000515
 1863   0.017009    -7.181151     -6.666557       0.074580       0.000515
 1864   0.017001    -7.196833     -6.681608       0.074583       0.000515
 1865   0.016995    -7.210258     -6.694003       0.074586       0.000515
 1866   0.017021    -7.221431     -6.703889       0.074589       0.000515
 1867   0.017060    -7.230780     -6.711904       0.074591       0.000515
 1868   0.017091    -7.239051     -6.719015       0.074594       0.000515
 1869   0.017089    -7.246893     -6.725944       0.074597       0.000515
 1870   0.017086    -7.254760     -6.733138       0.074600       0.000515
 1871   0.017083    -7.262733     -6.740566       0.074604       0.000515
 1872   0.017085    -7.270517     -6.747763       0.074607       0.000515
 1873   0.017076    -7.277859     -6.754399       0.074610       0.000515
 1874   0.017082    -7.284672     -6.760406       0.074613       0.000515
 1875   0.017098    -7.290995     -6.765862       0.074616       0.000515
 1876   0.017101    -7.296993     -6.770997       0.074619       0.000515
 1877   0.017102    -7.302806     -6.775979       0.074622       0.000515
 1878   0.017100    -7.308491     -6.780867       0.074624       0.000515
 1879   0.017098    -7.314129     -6.785749       0.074627       0.000515
 1880   0.017096    -7.319850     -6.790787       0.074630       0.000515
 1881   0.017092    -7.325828     -6.796188       0.074633       0.000515
 1882   0.017089    -7.332244     -6.802161       0.074635       0.000515
 1883   0.017081    -7.339246     -6.808865       0.074638       0.000515
 1884   0.017075    -7.346928     -6.816392       0.074640       0.000515
 1885   0.017081    -7.355329     -6.824763       0.074642       0.000515
 1886   0.017069    -7.364434     -6.833937       0.074644       0.000515
 1887   0.017063    -7.374185     -6.843830       0.074646       0.000515
 1888   0.017056    -7.384513     -6.854342       0.074648       0.000515
 1889   0.017054    -7.395361     -6.865401       0.074650       0.000515
 1890   0.017053    -7.406696     -6.876970       0.074652       0.000515
 1891   0.017046    -7.418544     -6.889083       0.074653       0.000515
 1892   0.017041    -7.430934     -6.901780       0.074655       0.000515
 1893   0.017058    -7.443929     -6.915141       0.074656       0.000515
 1894   0.017082    -7.457583     -6.929230       0.074658       0.000515
 1895   0.017084    -7.471969     -6.944137       0.074659       0.000515
 1896   0.017086    -7.487141     -6.959929       0.074660       0.000515
 1897   0.017087    -7.503181     -6.976703       0.074661       0.000514
 1898   0.017085    -7.520127     -6.994500       0.074662       0.000514
 1899   0.017085    -7.538052     -7.013409       0.074663       0.000514
 1900   0.017081    -7.556952     -7.033416       0.074664       0.000514

---------------------- Local Time Stepping Summary ----------------------
MG level: 0 -> Min. DT: 0.00049776. Max. DT: 3.62891. CFL: 10.
MG level: 1 -> Min. DT: 0.000799727. Max. DT: 5.7113. CFL: 8.35917.
MG level: 2 -> Min. DT: 0.00155919. Max. DT: 8.311. CFL: 7.39444.
-------------------------------------------------------------------------

----------------------- Residual Evolution Summary ----------------------
log10[Maximum residual]: -6.40109.
Maximum residual point 407, located at (0.551902, 0.0589427).
-------------------------------------------------------------------------

 Iter    Time(s)     Res[Rho]     Res[RhoE]      CL(Total)      CD(Total)
 1901   0.017078    -7.576861     -7.054563       0.074665       0.000514
 1902   0.017077    -7.597721     -7.076770       0.074665       0.000514
 1903   0.017073    -7.619530     -7.100043       0.074666       0.000514
 1904   0.017067    -7.642166     -7.124229       0.074667       0.000514
 1905   0.017063    -7.665605     -7.149326       0.074667       0.000514
 1906   0.017066    -7.689848     -7.175376       0.074668       0.000514
 1907   0.017063    -7.714944     -7.202482       0.074668       0.000514
 1908   0.017059    -7.740722     -7.230414       0.074669       0.000514
 1909   0.017057    -7.766346     -7.257949       0.074669       0.000514
 1910   0.017059    -7.790160     -7.282791       0.074670       0.000514
 1911   0.017057    -7.811083     -7.303746       0.074670       0.000514

-------------------------- File Output Summary --------------------------
Writing comma-separated values (CSV) surface files.
Merging coordinates in the Master node.
Merging solution in the Master node.
Writing SU2 native restart file.
Writing the forces breakdown file.
-------------------------------------------------------------------------

 1912   0.017261    -7.829593     -7.321938       0.074670       0.000514
 1913   0.017256    -7.846776     -7.339005       0.074671       0.000514
 1914   0.017252    -7.863124     -7.355379       0.074671       0.000514
 1915   0.017249    -7.878875     -7.371148       0.074671       0.000514
 1916   0.017242    -7.894461     -7.386786       0.074672       0.000514
 1917   0.017235    -7.909692     -7.401850       0.074672       0.000514
 1918   0.017231    -7.924115     -7.415654       0.074672       0.000514
 1919   0.017225    -7.937467     -7.427905       0.074673       0.000514
 1920   0.017217    -7.949361     -7.438300       0.074673       0.000514
 1921   0.017221    -7.960904     -7.448864       0.074673       0.000514
 1922   0.017256    -7.975569     -7.464221       0.074673       0.000514
 1923   0.017282    -7.981574     -7.466562       0.074674       0.000514
 1924   0.017294    -7.995977     -7.482388       0.074674       0.000514
 1925   0.017293    -8.013994     -7.502471       0.074674       0.000514
 1926   0.017289    -8.024000     -7.509377       0.074675       0.000514
 1927   0.017284    -8.042573     -7.530127       0.074675       0.000514
 1928   0.017275    -8.059592     -7.547266       0.074675       0.000514
 1929   0.017268    -8.071397     -7.556678       0.074676       0.000514
 1930   0.017274    -8.086584     -7.572221       0.074676       0.000514
 1931   0.017281    -8.098748     -7.583174       0.074676       0.000514
 1932   0.017278    -8.106170     -7.587749       0.074677       0.000514
 1933   0.017278    -8.117237     -7.598807       0.074677       0.000514
 1934   0.017274    -8.129260     -7.611103       0.074677       0.000514
 1935   0.017270    -8.139837     -7.620894       0.074678       0.000514
 1936   0.017265    -8.151914     -7.632934       0.074678       0.000514
 1937   0.017261    -8.161675     -7.641532       0.074678       0.000514
 1938   0.017255    -8.169731     -7.648035       0.074678       0.000514
 1939   0.017272    -8.180169     -7.658407       0.074679       0.000514
 1940   0.017265    -8.190400     -7.668358       0.074679       0.000514

---------------------- Local Time Stepping Summary ----------------------
MG level: 0 -> Min. DT: 0.000497754. Max. DT: 3.62891. CFL: 10.
MG level: 1 -> Min. DT: 0.000799727. Max. DT: 5.7113. CFL: 8.35917.
MG level: 2 -> Min. DT: 0.00155918. Max. DT: 8.311. CFL: 7.39444.
-------------------------------------------------------------------------

----------------------- Residual Evolution Summary ----------------------
log10[Maximum residual]: -7.12269.
Maximum residual point 428, located at (0.275219, 0.0570172).
-------------------------------------------------------------------------

 Iter    Time(s)     Res[Rho]     Res[RhoE]      CL(Total)      CD(Total)
 1941   0.017270    -8.200886     -7.678530       0.074679       0.000514
 1942   0.017262    -8.212930     -7.690809       0.074680       0.000514
 1943   0.017257    -8.223651     -7.700952       0.074680       0.000514
 1944   0.017252    -8.233797     -7.710307       0.074680       0.000514
 1945   0.017245    -8.245265     -7.721666       0.074680       0.000514
 1946   0.017244    -8.256491     -7.732602       0.074681       0.000514
 1947   0.017238    -8.268213     -7.744154       0.074681       0.000514
 1948   0.017232    -8.281542     -7.757854       0.074681       0.000514
 1949   0.017225    -8.294790     -7.771171       0.074681       0.000514
 1950   0.017219    -8.308469     -7.784905       0.074681       0.000514
 1951   0.017214    -8.323563     -7.800495       0.074682       0.000514
 1952   0.017212    -8.338830     -7.816080       0.074682       0.000514
 1953   0.017206    -8.354747     -7.832377       0.074682       0.000514
 1954   0.017201    -8.371918     -7.850263       0.074682       0.000514
 1955   0.017196    -8.389225     -7.868059       0.074682       0.000514
 1956   0.017190    -8.406809     -7.886044       0.074682       0.000514
 1957   0.017184    -8.425098     -7.904911       0.074682       0.000514
 1958   0.017179    -8.443437     -7.923684       0.074683       0.000514
 1959   0.017173    -8.461917     -7.942550       0.074683       0.000514
 1960   0.017168    -8.480895     -7.962075       0.074683       0.000514
 1961   0.017164    -8.500034     -7.981724       0.074683       0.000514
 1962   0.017158    -8.519294     -8.001466       0.074683       0.000514
 1963   0.017152    -8.538856     -8.021609       0.074683       0.000514
 1964   0.017150    -8.558572     -8.041922       0.074683       0.000514
 1965   0.017145    -8.578376     -8.062326       0.074683       0.000514
 1966   0.017142    -8.598272     -8.082863       0.074683       0.000514
 1967   0.017139    -8.618144     -8.103378       0.074683       0.000514
 1968   0.017133    -8.637894     -8.123752       0.074683       0.000514
 1969   0.017130    -8.657442     -8.143906       0.074683       0.000514
 1970   0.017128    -8.676707     -8.163741       0.074683       0.000514
 1971   0.017125    -8.695625     -8.183186       0.074683       0.000514
 1972   0.017122    -8.714143     -8.202167       0.074683       0.000514
 1973   0.017118    -8.732187     -8.220583       0.074683       0.000514
 1974   0.017116    -8.749668     -8.238304       0.074683       0.000514
 1975   0.017111    -8.766466     -8.255168       0.074683       0.000514
 1976   0.017106    -8.782428     -8.270969       0.074683       0.000514
 1977   0.017100    -8.797415     -8.285546       0.074683       0.000514
 1978   0.017097    -8.811476     -8.299009       0.074683       0.000514
 1979   0.017092    -8.824820     -8.311663       0.074683       0.000514
 1980   0.017088    -8.837681     -8.323801       0.074683       0.000514

---------------------- Local Time Stepping Summary ----------------------
MG level: 0 -> Min. DT: 0.000497754. Max. DT: 3.62891. CFL: 10.
MG level: 1 -> Min. DT: 0.000799727. Max. DT: 5.7113. CFL: 8.35917.
MG level: 2 -> Min. DT: 0.00155918. Max. DT: 8.311. CFL: 7.39444.
-------------------------------------------------------------------------

----------------------- Residual Evolution Summary ----------------------
log10[Maximum residual]: -7.70241.
Maximum residual point 357, located at (0.520296, 0.0600268).
-------------------------------------------------------------------------

 Iter    Time(s)     Res[Rho]     Res[RhoE]      CL(Total)      CD(Total)
 1981   0.017088    -8.850144     -8.335496       0.074683       0.000514
 1982   0.017127    -8.862170     -8.346662       0.074683       0.000514
 1983   0.017160    -8.873685     -8.357208       0.074683       0.000514
 1984   0.017173    -8.884886     -8.367438       0.074683       0.000514
 1985   0.017177    -8.896105     -8.377810       0.074683       0.000514
 1986   0.017176    -8.907594     -8.388610       0.074683       0.000514
 1987   0.017171    -8.919380     -8.399816       0.074683       0.000514
 1988   0.017168    -8.931395     -8.411304       0.074683       0.000514
 1989   0.017164    -8.943612     -8.423044       0.074683       0.000514
 1990   0.017173    -8.956150     -8.435212       0.074683       0.000514
 1991   0.017182    -8.969176     -8.448025       0.074683       0.000514
 1992   0.017181    -8.982823     -8.461630       0.074683       0.000514
 1993   0.017176    -8.997181     -8.476120       0.074683       0.000514
 1994   0.017170    -9.012318     -8.491562       0.074683       0.000514
 1995   0.017167    -9.028277     -8.507998       0.074683       0.000514
 1996   0.017162    -9.045096     -8.525467       0.074683       0.000514
 1997   0.017161    -9.062826     -8.544029       0.074682       0.000514
 1998   0.017157    -9.081512     -8.563739       0.074682       0.000514
 1999   0.017153    -9.101175     -8.584616       0.074682       0.000514
 2000   0.017151    -9.121776     -8.606602       0.074682       0.000514
 2001   0.017182    -9.143137     -8.629446       0.074682       0.000514
 2002   0.017184    -9.164934     -8.652713       0.074682       0.000514
 2003   0.017185    -9.186816     -8.675964       0.074682       0.000514
 2004   0.017184    -9.208420     -8.698758       0.074682       0.000514
 2005   0.017187    -9.229417     -8.720708       0.074682       0.000514
 2006   0.017189    -9.249507     -8.741464       0.074682       0.000514
 2007   0.017183    -9.268434     -8.760729       0.074682       0.000514
 2008   0.017179    -9.286010     -8.778296       0.074682       0.000514
 2009   0.017176    -9.302219     -8.794201       0.074682       0.000514
 2010   0.017170    -9.317261     -8.808756       0.074682       0.000514
 2011   0.017166    -9.331472     -8.822417       0.074682       0.000514
 2012   0.017162    -9.345203     -8.835619       0.074682       0.000514
 2013   0.017158    -9.358707     -8.848631       0.074682       0.000514
 2014   0.017156    -9.372156     -8.861623       0.074682       0.000514
 2015   0.017161    -9.385598     -8.874612       0.074682       0.000514
 2016   0.017161    -9.399050     -8.887606       0.074682       0.000514
 2017   0.017157    -9.412557     -8.900669       0.074682       0.000514
 2018   0.017153    -9.426016     -8.913648       0.074682       0.000514
 2019   0.017149    -9.439358     -8.926465       0.074682       0.000514
 2020   0.017146    -9.452301     -8.938735       0.074682       0.000514

---------------------- Local Time Stepping Summary ----------------------
MG level: 0 -> Min. DT: 0.000497754. Max. DT: 3.62891. CFL: 10.
MG level: 1 -> Min. DT: 0.000799727. Max. DT: 5.7113. CFL: 8.35917.
MG level: 2 -> Min. DT: 0.00155918. Max. DT: 8.311. CFL: 7.39444.
-------------------------------------------------------------------------

----------------------- Residual Evolution Summary ----------------------
log10[Maximum residual]: -8.40555.
Maximum residual point 582, located at (0.528914, 0.0757116).
-------------------------------------------------------------------------

 Iter    Time(s)     Res[Rho]     Res[RhoE]      CL(Total)      CD(Total)
 2021   0.017142    -9.464254     -8.949680       0.074682       0.000514
 2022   0.017139    -9.473854     -8.957519       0.074682       0.000514
 2023   0.017134    -9.478473     -8.958998       0.074682       0.000514
 2024   0.017131    -9.475635     -8.951632       0.074682       0.000514
 2025   0.017136    -9.467899     -8.939760       0.074682       0.000514
 2026   0.017131    -9.461873     -8.931711       0.074682       0.000514
 2027   0.017130    -9.462876     -8.933254       0.074682       0.000514
 2028   0.017142    -9.473760     -8.947136       0.074682       0.000514
 2029   0.017139    -9.490883     -8.967793       0.074682       0.000514
 2030   0.017137    -9.491336     -8.965756       0.074682       0.000514
 2031   0.017138    -9.479908     -8.948942       0.074682       0.000514
 2032   0.017140    -9.504317     -8.981207       0.074682       0.000514
 2033   0.017137    -9.513261     -8.994168       0.074682       0.000514
 2034   0.017135    -9.507548     -8.982497       0.074682       0.000514
 2035   0.017131    -9.556313     -9.047595       0.074682       0.000514
 2036   0.017127    -9.547467     -9.028444       0.074682       0.000514
 2037   0.017123    -9.545976     -9.021462       0.074682       0.000514
 2038   0.017120    -9.572614     -9.057936       0.074682       0.000514
 2039   0.017121    -9.561475     -9.038723       0.074682       0.000514
 2040   0.017142    -9.577172     -9.055643       0.074682       0.000514
 2041   0.017165    -9.613964     -9.103021       0.074682       0.000514
 2042   0.017170    -9.601201     -9.078713       0.074682       0.000514
 2043   0.017170    -9.613162     -9.089571       0.074682       0.000514
 2044   0.017166    -9.638682     -9.120581       0.074682       0.000514
 2045   0.017172    -9.642932     -9.119914       0.074682       0.000514
 2046   0.017174    -9.666072     -9.146761       0.074682       0.000514
 2047   0.017178    -9.678851     -9.158085       0.074682       0.000514
 2048   0.017194    -9.683056     -9.157958       0.074682       0.000514
 2049   0.017205    -9.700386     -9.177723       0.074682       0.000514
 2050   0.017204    -9.715076     -9.193123       0.074682       0.000514
 2051   0.017203    -9.726816     -9.203797       0.074682       0.000514
 2052   0.017242    -9.741685     -9.219226       0.074682       0.000514
 2053   0.017264    -9.755680     -9.233361       0.074682       0.000514
 2054   0.017262    -9.770539     -9.248608       0.074682       0.000514
 2055   0.017265    -9.788086     -9.267525       0.074682       0.000514
 2056   0.017261    -9.805222     -9.285381       0.074682       0.000514
 2057   0.017271    -9.822864     -9.303727       0.074682       0.000514
 2058   0.017278    -9.841836     -9.323846       0.074682       0.000514
 2059   0.017277    -9.860523     -9.343242       0.074682       0.000514
 2060   0.017275    -9.878508     -9.361532       0.074682       0.000514

---------------------- Local Time Stepping Summary ----------------------
MG level: 0 -> Min. DT: 0.000497755. Max. DT: 3.62891. CFL: 10.
MG level: 1 -> Min. DT: 0.000799727. Max. DT: 5.7113. CFL: 8.35917.
MG level: 2 -> Min. DT: 0.00155918. Max. DT: 8.311. CFL: 7.39444.
-------------------------------------------------------------------------

----------------------- Residual Evolution Summary ----------------------
log10[Maximum residual]: -8.79541.
Maximum residual point 1072, located at (0.515584, 0.135869).
-------------------------------------------------------------------------

 Iter    Time(s)     Res[Rho]     Res[RhoE]      CL(Total)      CD(Total)
 2061   0.017288    -9.896624     -9.380141       0.074682       0.000514
 2062   0.017308    -9.914351     -9.398228       0.074682       0.000514
 2063   0.017321    -9.931299     -9.415263       0.074682       0.000514
 2064   0.017341    -9.948023     -9.432166       0.074682       0.000514
 2065   0.017355    -9.964504     -9.448848       0.074682       0.000514
 2066   0.017355    -9.980691     -9.465186       0.074682       0.000514
 2067   0.017354    -9.996878     -9.481615       0.074682       0.000514
 2068   0.017352   -10.013057     -9.498070       0.074682       0.000514
 2069   0.017352   -10.029401     -9.514754       0.074682       0.000514
 2070   0.017352   -10.045751     -9.531411       0.074682       0.000514
 2071   0.017350   -10.062031     -9.547934       0.074682       0.000514
 2072   0.017354   -10.078418     -9.564603       0.074682       0.000514
 2073   0.017353   -10.094743     -9.581138       0.074682       0.000514
 2074   0.017352   -10.111178     -9.597795       0.074682       0.000514
 2075   0.017353   -10.127653     -9.614471       0.074682       0.000514
 2076   0.017351   -10.144169     -9.631133       0.074682       0.000514
 2077   0.017353   -10.160910     -9.648064       0.074682       0.000514
 2078   0.017355   -10.177842     -9.665146       0.074682       0.000514
 2079   0.017357   -10.195040     -9.682505       0.074682       0.000514
 2080   0.017358   -10.212379     -9.699918       0.074682       0.000514
 2081   0.017359   -10.229934     -9.717529       0.074682       0.000514
 2082   0.017358   -10.247484     -9.734993       0.074682       0.000514
 2083   0.017358   -10.265202     -9.752640       0.074682       0.000514
 2084   0.017357   -10.282780     -9.769999       0.074682       0.000514
 2085   0.017356   -10.300579     -9.787687       0.074682       0.000514
 2086   0.017355   -10.318222     -9.805094       0.074682       0.000514
 2087   0.017355   -10.335934     -9.822638       0.074682       0.000514
 2088   0.017355   -10.353952     -9.840646       0.074682       0.000514
 2089   0.017352   -10.372132     -9.858869       0.074682       0.000514
 2090   0.017350   -10.390474     -9.877298       0.074682       0.000514

-------------------------- File Output Summary --------------------------
Writing comma-separated values (CSV) surface files.
Merging coordinates in the Master node.
Merging solution in the Master node.
Writing SU2 native restart file.
Writing the forces breakdown file.
-------------------------------------------------------------------------

History file, closed.

------------------------- Solver Postprocessing -------------------------
Deleted CNumerics container.
Deleted CIntegration container.
Deleted CSolver container.
Deleted CIteration container.
Deleted CInterpolator container.
Deleted CTransfer container.
Deleted CGeometry container.
Deleted CFreeFormDefBox class.
Deleted CSurfaceMovement class.
Deleted CVolumetricMovement class.
Deleted CConfig container.
Deleted COutput class.
-------------------------------------------------------------------------

Completed in 7.520503 seconds on 8 cores.

------------------------- Exit Success (SU2_CFD) ------------------------


-------------------------------------------------------------------------
|    ___ _   _ ___                                                      |
|   / __| | | |_  )   Release 5.0.0  "Raven"                            |
|   \__ \ |_| |/ /                                                      |
|   |___/\___//___|   Suite (Solution Exporting Code)                   |
|                                                                       |
-------------------------------------------------------------------------
| SU2 Original Developers: Dr. Francisco D. Palacios.                   |
|                          Dr. Thomas D. Economon.                      |
-------------------------------------------------------------------------
| SU2 Developers:                                                       |
| - Prof. Juan J. Alonso's group at Stanford University.                |
| - Prof. Piero Colonna's group at Delft University of Technology.      |
| - Prof. Nicolas R. Gauger's group at Kaiserslautern U. of Technology. |
| - Prof. Alberto Guardone's group at Polytechnic University of Milan.  |
| - Prof. Rafael Palacios' group at Imperial College London.            |
| - Prof. Edwin van der Weide's group at the University of Twente.      |
| - Prof. Vincent Terrapon's group at the University of Liege.          |
-------------------------------------------------------------------------
| Copyright (C) 2012-2017 SU2, the open-source CFD code.                |
|                                                                       |
| SU2 is free software; you can redistribute it and/or                  |
| modify it under the terms of the GNU Lesser General Public            |
| License as published by the Free Software Foundation; either          |
| version 2.1 of the License, or (at your option) any later version.    |
|                                                                       |
| SU2 is distributed in the hope that it will be useful,                |
| but WITHOUT ANY WARRANTY; without even the implied warranty of        |
| MERCHANTABILITY or FITNESS FOR A PARTICULAR PURPOSE. See the GNU      |
| Lesser General Public License for more details.                       |
|                                                                       |
| You should have received a copy of the GNU Lesser General Public      |
| License along with SU2. If not, see <http://www.gnu.org/licenses/>.   |
-------------------------------------------------------------------------

------------------------ Physical Case Definition -----------------------
Input mesh file name: mesh_NACA0012_inv_deform.su2

-------------------------- Output Information ---------------------------
The output file format is Tecplot ASCII (.dat).
Flow variables file name: flow.

------------------- Config File Boundary Information --------------------
Euler wall boundary marker(s): airfoil.
Far-field boundary marker(s): farfield.

---------------------- Read Grid File Information -----------------------
Two dimensional problem.
5233 points before parallel partitioning.
Performing linear partitioning of the grid nodes.
10216 interior elements before parallel partitioning.
Calling the partitioning functions.
Building the graph adjacency structure.
Distributing elements across all ranks.
2 surface markers.
200 boundary elements in index 0 (Marker = airfoil).
50 boundary elements in index 1 (Marker = farfield).
Calling ParMETIS...
Finished partitioning using ParMETIS (547 edge cuts).
Communicating partition data and creating halo layers.
10763 interior elements including halo cells. 
10763 triangles.
5796 vertices including ghost points. 
Establishing MPI communication patterns.
Identify vertices.

------------------------- Solution Postprocessing -----------------------
Reading and storing the solution from restart_flow.dat.
Merging connectivities in the Master node.
Merging solution in the Master node.
Writing Tecplot ASCII file (volume grid).
Writing Tecplot ASCII file (surface grid).

Completed in 0.130730 seconds on 8 cores.

------------------------- Exit Success (SU2_SOL) ------------------------

