
-------------------------------------------------------------------------
|    ___ _   _ ___                                                      |
|   / __| | | |_  )   Release 5.0.0  "Raven"                            |
|   \__ \ |_| |/ /                                                      |
|   |___/\___//___|   Suite (Computational Fluid Dynamics Code)         |
|                                                                       |
-------------------------------------------------------------------------
| SU2 Original Developers: Dr. Francisco D. Palacios.                   |
|                          Dr. Thomas D. Economon.                      |
-------------------------------------------------------------------------
| SU2 Developers:                                                       |
| - Prof. Juan J. Alonso's group at Stanford University.                |
| - Prof. Piero Colonna's group at Delft University of Technology.      |
| - Prof. Nicolas R. Gauger's group at Kaiserslautern U. of Technology. |
| - Prof. Alberto Guardone's group at Polytechnic University of Milan.  |
| - Prof. Rafael Palacios' group at Imperial College London.            |
| - Prof. Edwin van der Weide's group at the University of Twente.      |
| - Prof. Vincent Terrapon's group at the University of Liege.          |
-------------------------------------------------------------------------
| Copyright (C) 2012-2017 SU2, the open-source CFD code.                |
|                                                                       |
| SU2 is free software; you can redistribute it and/or                  |
| modify it under the terms of the GNU Lesser General Public            |
| License as published by the Free Software Foundation; either          |
| version 2.1 of the License, or (at your option) any later version.    |
|                                                                       |
| SU2 is distributed in the hope that it will be useful,                |
| but WITHOUT ANY WARRANTY; without even the implied warranty of        |
| MERCHANTABILITY or FITNESS FOR A PARTICULAR PURPOSE. See the GNU      |
| Lesser General Public License for more details.                       |
|                                                                       |
| You should have received a copy of the GNU Lesser General Public      |
| License along with SU2. If not, see <http://www.gnu.org/licenses/>.   |
-------------------------------------------------------------------------

------------------------ Physical Case Definition -----------------------
Compressible Euler equations.
Mach number: 0.8.
Angle of attack (AoA): 1.25 deg, and angle of sideslip (AoS): 0 deg.
Read flow solution from: solution_flow.dat.
Non-Dimensional simulation (P=1.0, Rho=1.0, T=1.0 at the farfield).
The reference length/area (force coefficient) is 1.
The reference length (moment computation) is 1.
Reference origin (moment computation) is (0.25, 0, 0).
Surface(s) where the force coefficients are evaluated: airfoil.
Surface(s) plotted in the output file: airfoil.
Surface(s) affected by the design variables: airfoil.
Input mesh file name: mesh_NACA0012_inv_deform.su2

---------------------- Space Numerical Integration ----------------------
Jameson-Schmidt-Turkel scheme for the flow inviscid terms.
JST viscous coefficients (1st, 2nd & 4th): 0.15, 0.5, 0.02.
The method includes a grid stretching correction (p = 0.3).
Second order integration.
Gradient computation using Green-Gauss theorem.

---------------------- Time Numerical Integration -----------------------
Local time stepping (steady state simulation).
Euler implicit method for the flow equations.
V Multigrid Cycle, with 2 multigrid levels.
Damping factor for the residual restriction: 1.
Damping factor for the correction prolongation: 1.
No CFL adaptation.
Multigrid Level:                       0     1     2
Courant-Friedrichs-Lewy number:       10
MG PreSmooth coefficients:             1     2     3
MG PostSmooth coefficients:            0     0     0
MG CorrecSmooth coefficients:          0     0     0

------------------------- Convergence Criteria --------------------------
Maximum number of iterations: 1000.
Reduce the density residual 6 orders of magnitude.
The minimum bound for the density residual is 10^(-13).
Start convergence criteria at iteration 10.

-------------------------- Output Information ---------------------------
Writing a flow solution every 250 iterations.
Writing the convergence history every 1 iterations.
The output file format is Tecplot ASCII (.dat).
Convergence history file name: history_direct.
Forces breakdown file name: forces_breakdown.dat.
Surface flow coefficients file name: surface_flow.
Flow variables file name: flow.
Restart flow file name: restart_flow.dat.

------------------- Config File Boundary Information --------------------
Euler wall boundary marker(s): airfoil.
Far-field boundary marker(s): farfield.

---------------------- Read Grid File Information -----------------------
Two dimensional problem.
5233 points before parallel partitioning.
Performing linear partitioning of the grid nodes.
10216 interior elements before parallel partitioning.
Calling the partitioning functions.
Building the graph adjacency structure.
Distributing elements across all ranks.
2 surface markers.
200 boundary elements in index 0 (Marker = airfoil).
50 boundary elements in index 1 (Marker = farfield).
Calling ParMETIS...
Finished partitioning using ParMETIS (547 edge cuts).
Communicating partition data and creating halo layers.
10763 interior elements including halo cells. 
10763 triangles.
5796 vertices including ghost points. 
Establishing MPI communication patterns.

------------------------- Geometry Preprocessing ------------------------
Setting point connectivity.
Renumbering points (Reverse Cuthill McKee Ordering).
Recomputing point connectivity.
Setting element connectivity.
Checking the numerical grid orientation.
Identifying edges and vertices.
Computing centers of gravity.
Setting the control volume structure.
Area of the computational grid: 1.3e+03.
Searching for the closest normal neighbors to the surfaces.
Compute the surface curvature.
Max K: 7.84e+03. Mean K: 35.7. Standard deviation K: 494.
Checking for periodicity.
Setting the multigrid structure.
MG level: 0 -> CVs: 5796. Agglomeration rate 1/1.00. CFL 10.
MG level: 1 -> CVs: 1800. Agglomeration rate 1/3.22. CFL 8.36.
MG level: 2 -> CVs: 626. Agglomeration rate 1/2.88. CFL 7.39.
Computing wall distances.
Wetted area = 2.03 m.
Area projection in the x-plane = 0.107 m, y-plane = 1 m.

------------------------- Driver information --------------------------
A Fluid driver has been instantiated.

------------------------ Iteration Preprocessing ------------------------
Zone 1: Euler/Navier-Stokes/RANS flow iteration.

------------------------- Solver Preprocessing --------------------------
Inviscid flow: Computing density based on free-stream
temperature and pressure using the ideal gas law.
Force coefficients computed using free-stream values.
-- Input conditions:
Fluid Model: STANDARD_AIR 
Specific gas constant: 287.058 N.m/kg.K.
Specific gas constant (non-dim): 1
Specific Heat Ratio: 1.4
Free-stream static pressure: 101325 Pa.
Free-stream total pressure: 154454 Pa.
Free-stream temperature: 288.15 K.
Free-stream density: 1.22498 kg/m^3.
Free-stream velocity: (272.173, 5.93883) m/s. Magnitude: 272.238 m/s (529.186 KTS).
Free-stream total energy per unit mass: 243846 m^2/s^2.
-- Reference values:
Reference specific gas constant: 287.058 N.m/kg.K.
Reference pressure: 101325 Pa.
Reference temperature: 288.15 K.
Reference density: 1.22498 kg/m^3.
Reference velocity: 287.603 m/s.
Reference energy per unit mass: 82715.8 m^2/s^2.
-- Resulting non-dimensional state:
Mach number (non-dim): 0.8
Specific gas constant (non-dim): 1
Free-stream temperature (non-dim): 1
Free-stream pressure (non-dim): 1
Free-stream density (non-dim): 1
Free-stream velocity (non-dim): (0.946348, 0.0206494). Magnitude: 0.946573
Free-stream total energy per unit mass (non-dim): 2.948

Initialize Jacobian structure (Euler). MG level: 0.
Initialize Jacobian structure (Euler). MG level: 1.
Initialize Jacobian structure (Euler). MG level: 2.

----------------- Integration and Numerics Preprocessing ----------------
Integration Preprocessing.
Numerics Preprocessing.

------------------------------ Begin Solver -----------------------------

---------------------- Local Time Stepping Summary ----------------------
MG level: 0 -> Min. DT: 0.000497809. Max. DT: 3.6287. CFL: 10.
MG level: 1 -> Min. DT: 0.000799997. Max. DT: 5.71116. CFL: 8.35917.
MG level: 2 -> Min. DT: 0.00155937. Max. DT: 8.31073. CFL: 7.39444.
-------------------------------------------------------------------------

----------------------- Residual Evolution Summary ----------------------
log10[Maximum residual]: -6.48747.
Maximum residual point 105, located at (0.00752, 0.0115502).
-------------------------------------------------------------------------

 Iter    Time(s)     Res[Rho]     Res[RhoE]      CL(Total)      CD(Total)
 4798   0.015726    -7.590009     -6.993629       0.066733       0.000439
 4799   0.016445    -7.647773     -7.044493       0.066737       0.000443
 4800   0.016002    -7.650513     -7.050573       0.066740       0.000445
 4801   0.015673    -7.618568     -7.014992       0.066743       0.000446
 4802   0.015783    -7.576129     -6.970714       0.066747       0.000447
 4803   0.015736    -7.542735     -6.939326       0.066751       0.000448
 4804   0.015671    -7.513771     -6.911506       0.066755       0.000449
 4805   0.015517    -7.486833     -6.883715       0.066759       0.000449
 4806   0.015372    -7.468808     -6.865133       0.066762       0.000450
 4807   0.015256    -7.458196     -6.854250       0.066765       0.000450
 4808   0.015159    -7.453844     -6.849774       0.066768       0.000450
 4809   0.015129    -7.454296     -6.850153       0.066771       0.000450
 4810   0.015097    -7.457843     -6.853659       0.066773       0.000451
 4811   0.015148    -7.463105     -6.858955       0.066775       0.000451
 4812   0.015266    -7.469273     -6.865245       0.066777       0.000451
 4813   0.015214    -7.475843     -6.871927       0.066779       0.000451
 4814   0.015157    -7.482304     -6.878297       0.066780       0.000451
 4815   0.015217    -7.488114     -6.883587       0.066782       0.000451
 4816   0.015482    -7.492887     -6.887266       0.066783       0.000451
 4817   0.015439    -7.496596     -6.889327       0.066784       0.000451
 4818   0.015384    -7.499617     -6.890307       0.066785       0.000451
 4819   0.015475    -7.502581     -6.891053       0.066786       0.000451
 4820   0.015425    -7.506248     -6.892524       0.066787       0.000451
 4821   0.015398    -7.511480     -6.895735       0.066788       0.000451
 4822   0.015594    -7.519326     -6.901853       0.066789       0.000451
 4823   0.015610    -7.531149     -6.912357       0.066790       0.000451
 4824   0.015568    -7.548765     -6.929204       0.066790       0.000451
 4825   0.015583    -7.574643     -6.955055       0.066791       0.000451
 4826   0.015561    -7.612358     -6.993784       0.066791       0.000451
 4827   0.015534    -7.666991     -7.050962       0.066792       0.000451
 4828   0.015495    -7.740000     -7.128481       0.066793       0.000452
 4829   0.015464    -7.804512     -7.197453       0.066793       0.000452
 4830   0.015439    -7.838222     -7.233565       0.066794       0.000452
 4831   0.015407    -7.859525     -7.257213       0.066795       0.000452
 4832   0.015378    -7.878630     -7.279494       0.066797       0.000452
 4833   0.015350    -7.894109     -7.298090       0.066798       0.000452
 4834   0.015367    -7.901797     -7.307798       0.066799       0.000452
 4835   0.015394    -7.904545     -7.311903       0.066800       0.000452
 4836   0.015618    -7.906577     -7.315325       0.066801       0.000452
 4837   0.015653    -7.908561     -7.318794       0.066802       0.000452

---------------------- Local Time Stepping Summary ----------------------
MG level: 0 -> Min. DT: 0.000497808. Max. DT: 3.6287. CFL: 10.
MG level: 1 -> Min. DT: 0.000799997. Max. DT: 5.71116. CFL: 8.35917.
MG level: 2 -> Min. DT: 0.00155937. Max. DT: 8.31073. CFL: 7.39444.
-------------------------------------------------------------------------

----------------------- Residual Evolution Summary ----------------------
log10[Maximum residual]: -6.9767.
Maximum residual point 1582, located at (0.53728, 0.217751).
-------------------------------------------------------------------------

 Iter    Time(s)     Res[Rho]     Res[RhoE]      CL(Total)      CD(Total)
 4838   0.015632    -7.909375     -7.320968       0.066802       0.000452
 4839   0.015604    -7.908934     -7.321682       0.066803       0.000452
 4840   0.015573    -7.907860     -7.321551       0.066804       0.000452
 4841   0.015601    -7.906453     -7.320839       0.066805       0.000452
 4842   0.015582    -7.904905     -7.319728       0.066805       0.000452
 4843   0.015668    -7.903617     -7.318661       0.066806       0.000452
 4844   0.015686    -7.902971     -7.318077       0.066806       0.000452
 4845   0.015657    -7.903218     -7.318272       0.066807       0.000452
 4846   0.015780    -7.904589     -7.319523       0.066807       0.000452
 4847   0.015934    -7.907313     -7.322114       0.066808       0.000452
 4848   0.015969    -7.911561     -7.326267       0.066808       0.000452
 4849   0.015941    -7.917463     -7.332166       0.066808       0.000452
 4850   0.015928    -7.925154     -7.340002       0.066809       0.000452
 4851   0.015907    -7.934752     -7.349957       0.066809       0.000452
 4852   0.015885    -7.946346     -7.362182       0.066809       0.000452
 4853   0.015856    -7.959996     -7.376802       0.066810       0.000452
 4854   0.015823    -7.975753     -7.393932       0.066810       0.000452
 4855   0.015804    -7.993663     -7.413687       0.066810       0.000452
 4856   0.015778    -8.013791     -7.436203       0.066810       0.000452
 4857   0.015749    -8.036249     -7.461672       0.066811       0.000452
 4858   0.015733    -8.061202     -7.490355       0.066811       0.000452
 4859   0.015712    -8.088869     -7.522572       0.066811       0.000452
 4860   0.015697    -8.119486     -7.558665       0.066811       0.000452
 4861   0.015675    -8.153238     -7.598896       0.066812       0.000452
 4862   0.015656    -8.190052     -7.643152       0.066812       0.000452
 4863   0.015657    -8.228943     -7.690027       0.066812       0.000452
 4864   0.015643    -8.266252     -7.734375       0.066812       0.000452
 4865   0.015630    -8.292559     -7.763325       0.066812       0.000452
 4866   0.015610    -8.295940     -7.762174       0.066812       0.000452
 4867   0.015591    -8.281242     -7.740030       0.066812       0.000452
 4868   0.015571    -8.264038     -7.717362       0.066813       0.000452
 4869   0.015554    -8.252587     -7.703039       0.066813       0.000452
 4870   0.015635    -8.248017     -7.697031       0.066813       0.000452
 4871   0.015615    -8.247450     -7.695504       0.066813       0.000452
 4872   0.015601    -8.251392     -7.699481       0.066813       0.000452
 4873   0.015602    -8.260567     -7.710040       0.066813       0.000452
 4874   0.015585    -8.271817     -7.723101       0.066813       0.000452
 4875   0.015573    -8.283532     -7.736608       0.066813       0.000452
 4876   0.015561    -8.294476     -7.749020       0.066813       0.000452
 4877   0.015552    -8.303152     -7.758410       0.066813       0.000452

---------------------- Local Time Stepping Summary ----------------------
MG level: 0 -> Min. DT: 0.000497809. Max. DT: 3.6287. CFL: 10.
MG level: 1 -> Min. DT: 0.000799997. Max. DT: 5.71116. CFL: 8.35917.
MG level: 2 -> Min. DT: 0.00155937. Max. DT: 8.31073. CFL: 7.39444.
-------------------------------------------------------------------------

----------------------- Residual Evolution Summary ----------------------
log10[Maximum residual]: -7.15235.
Maximum residual point 1601, located at (0.506505, 0.218591).
-------------------------------------------------------------------------

 Iter    Time(s)     Res[Rho]     Res[RhoE]      CL(Total)      CD(Total)
 4878   0.015533    -8.310238     -7.765755       0.066813       0.000452
 4879   0.015521    -8.316799     -7.772496       0.066813       0.000452
 4880   0.015509    -8.323461     -7.779376       0.066813       0.000452
 4881   0.015497    -8.330472     -7.786626       0.066813       0.000452
 4882   0.015482    -8.337896     -7.794293       0.066813       0.000452
 4883   0.015470    -8.345823     -7.802513       0.066813       0.000452
 4884   0.015502    -8.354388     -7.811492       0.066813       0.000452
 4885   0.015487    -8.363759     -7.821464       0.066813       0.000452
 4886   0.015488    -8.374132     -7.832677       0.066813       0.000452
 4887   0.015542    -8.385728     -7.845394       0.066813       0.000452
 4888   0.015534    -8.398756     -7.859855       0.066813       0.000452
 4889   0.015525    -8.413365     -7.876214       0.066813       0.000452
 4890   0.015522    -8.429620     -7.894510       0.066813       0.000452
 4891   0.015505    -8.447505     -7.914686       0.066813       0.000452
 4892   0.015496    -8.466940     -7.936612       0.066813       0.000452
 4893   0.015484    -8.487772     -7.960080       0.066813       0.000452
 4894   0.015468    -8.509723     -7.984735       0.066813       0.000452
 4895   0.015455    -8.532251     -8.009898       0.066813       0.000452
 4896   0.015445    -8.554272     -8.034193       0.066813       0.000452
 4897   0.015438    -8.573751     -8.054848       0.066813       0.000452
 4898   0.015435    -8.588027     -8.068287       0.066813       0.000452
 4899   0.015476    -8.595224     -8.072888       0.066813       0.000452
 4900   0.015502    -8.594976     -8.068806       0.066813       0.000452
 4901   0.015538    -8.591497     -8.061825       0.066813       0.000452
 4902   0.015527    -8.588732     -8.056820       0.066813       0.000452
 4903   0.015518    -8.588507     -8.055591       0.066813       0.000452
 4904   0.015506    -8.591135     -8.058094       0.066813       0.000452
 4905   0.015492    -8.597030     -8.064681       0.066813       0.000452
 4906   0.015484    -8.606448     -8.075599       0.066813       0.000452
 4907   0.015477    -8.619180     -8.090477       0.066813       0.000452
 4908   0.015465    -8.634697     -8.108551       0.066813       0.000452
 4909   0.015459    -8.652556     -8.129211       0.066813       0.000452
 4910   0.015452    -8.672746     -8.152435       0.066813       0.000452
 4911   0.015440    -8.695524     -8.178528       0.066813       0.000452
 4912   0.015427    -8.720640     -8.207064       0.066813       0.000452
 4913   0.015456    -8.746653     -8.236025       0.066813       0.000452
 4914   0.015446    -8.771574     -8.262777       0.066813       0.000452
 4915   0.015436    -8.794176     -8.285985       0.066813       0.000452
 4916   0.015424    -8.813994     -8.305407       0.066813       0.000452
 4917   0.015414    -8.831072     -8.321368       0.066813       0.000452

---------------------- Local Time Stepping Summary ----------------------
MG level: 0 -> Min. DT: 0.000497809. Max. DT: 3.6287. CFL: 10.
MG level: 1 -> Min. DT: 0.000799997. Max. DT: 5.71116. CFL: 8.35917.
MG level: 2 -> Min. DT: 0.00155937. Max. DT: 8.31073. CFL: 7.39444.
-------------------------------------------------------------------------

----------------------- Residual Evolution Summary ----------------------
log10[Maximum residual]: -7.6505.
Maximum residual point 261, located at (0.583331, 0.0575321).
-------------------------------------------------------------------------

 Iter    Time(s)     Res[Rho]     Res[RhoE]      CL(Total)      CD(Total)
 4918   0.015404    -8.847489     -8.336962       0.066813       0.000452
 4919   0.015394    -8.866532     -8.356741       0.066813       0.000452
 4920   0.015386    -8.888079     -8.379876       0.066813       0.000452
 4921   0.015376    -8.909997     -8.402701       0.066813       0.000452
 4922   0.015367    -8.932455     -8.425741       0.066813       0.000452
 4923   0.015358    -8.954764     -8.448309       0.066813       0.000452
 4924   0.015352    -8.976563     -8.470016       0.066813       0.000452
 4925   0.015343    -8.998221     -8.491568       0.066813       0.000452
 4926   0.015335    -9.020153     -8.513614       0.066813       0.000452
 4927   0.015329    -9.042122     -8.535732       0.066813       0.000452
 4928   0.015320    -9.064180     -8.558006       0.066813       0.000452
 4929   0.015316    -9.087246     -8.581780       0.066813       0.000452
 4930   0.015316    -9.107856     -8.601531       0.066813       0.000452
 4931   0.015316    -9.129067     -8.622610       0.066813       0.000452
 4932   0.015310    -9.152572     -8.647737       0.066813       0.000452
 4933   0.015311    -9.174816     -8.669863       0.066813       0.000452
 4934   0.015303    -9.199545     -8.695575       0.066813       0.000452
 4935   0.015298    -9.218321     -8.712436       0.066813       0.000452
 4936   0.015292    -9.239580     -8.733450       0.066813       0.000452
 4937   0.015283    -9.262396     -8.756940       0.066813       0.000452
 4938   0.015273    -9.280797     -8.774001       0.066813       0.000452
 4939   0.015264    -9.300746     -8.793170       0.066813       0.000452
 4940   0.015271    -9.321644     -8.814370       0.066813       0.000452
 4941   0.015261    -9.342689     -8.835340       0.066813       0.000452
 4942   0.015261    -9.362741     -8.854740       0.066813       0.000452
 4943   0.015256    -9.383446     -8.875039       0.066813       0.000452
 4944   0.015250    -9.405342     -8.897167       0.066813       0.000452
 4945   0.015245    -9.428684     -8.921218       0.066813       0.000452
 4946   0.015239    -9.453058     -8.946359       0.066813       0.000452
 4947   0.015236    -9.478331     -8.972394       0.066813       0.000452
 4948   0.015229    -9.504693     -8.999665       0.066813       0.000452
 4949   0.015225    -9.531970     -9.027937       0.066813       0.000452
 4950   0.015221    -9.559798     -9.056686       0.066813       0.000452
 4951   0.015272    -9.588242     -9.086055       0.066813       0.000452
 4952   0.015268    -9.617515     -9.116388       0.066813       0.000452
 4953   0.015278    -9.647868     -9.147995       0.066813       0.000452
 4954   0.015283    -9.679321     -9.180814       0.066813       0.000452
 4955   0.015279    -9.711940     -9.214867       0.066813       0.000452
 4956   0.015272    -9.745547     -9.249847       0.066813       0.000452
 4957   0.015265    -9.779248     -9.284409       0.066813       0.000452

---------------------- Local Time Stepping Summary ----------------------
MG level: 0 -> Min. DT: 0.000497809. Max. DT: 3.6287. CFL: 10.
MG level: 1 -> Min. DT: 0.000799997. Max. DT: 5.71116. CFL: 8.35917.
MG level: 2 -> Min. DT: 0.00155937. Max. DT: 8.31073. CFL: 7.39444.
-------------------------------------------------------------------------

----------------------- Residual Evolution Summary ----------------------
log10[Maximum residual]: -8.54096.
Maximum residual point 261, located at (0.583331, 0.0575321).
-------------------------------------------------------------------------

 Iter    Time(s)     Res[Rho]     Res[RhoE]      CL(Total)      CD(Total)
 4958   0.015259    -9.811433     -9.316289       0.066813       0.000452
 4959   0.015252    -9.839928     -9.342752       0.066813       0.000452
 4960   0.015248    -9.863807     -9.363315       0.066813       0.000452
 4961   0.015240    -9.886451     -9.383308       0.066813       0.000452
 4962   0.015234    -9.912933     -9.409619       0.066813       0.000452
 4963   0.015228    -9.938586     -9.434745       0.066813       0.000452
 4964   0.015222    -9.947866     -9.436963       0.066813       0.000452
 4965   0.015220    -9.976456     -9.467789       0.066813       0.000452
 4966   0.015216   -10.013385     -9.514627       0.066813       0.000452
 4967   0.015244   -10.047686     -9.549640       0.066813       0.000452
 4968   0.015262   -10.084316     -9.587652       0.066813       0.000452
 4969   0.015254   -10.119262     -9.622451       0.066813       0.000452
 4970   0.015252   -10.147269     -9.647538       0.066813       0.000452
 4971   0.015246   -10.180617     -9.681217       0.066813       0.000452
 4972   0.015239   -10.207671     -9.706189       0.066813       0.000452
 4973   0.015235   -10.235637     -9.733367       0.066813       0.000452
 4974   0.015230   -10.260709     -9.756400       0.066813       0.000452
 4975   0.015226   -10.278713     -9.769930       0.066813       0.000452
 4976   0.015219   -10.291804     -9.778061       0.066813       0.000452
 4977   0.015217   -10.319706     -9.808925       0.066813       0.000452
 4978   0.015210   -10.348050     -9.840009       0.066813       0.000452
 4979   0.015208   -10.372160     -9.863757       0.066813       0.000452
 4980   0.015211   -10.401436     -9.894627       0.066813       0.000452
 4981   0.015212   -10.437437     -9.935058       0.066813       0.000452
 4982   0.015208   -10.464934     -9.961398       0.066813       0.000452
 4983   0.015208   -10.488428     -9.982622       0.066813       0.000452
 4984   0.015205   -10.518600    -10.014871       0.066813       0.000452
 4985   0.015198   -10.539926    -10.033980       0.066813       0.000452
 4986   0.015197   -10.551054    -10.039528       0.066813       0.000452
 4987   0.015191   -10.567901    -10.055318       0.066813       0.000452
 4988   0.015189   -10.587657    -10.075858       0.066813       0.000452
 4989   0.015183   -10.601984    -10.088148       0.066813       0.000452
 4990   0.015180   -10.619485    -10.105194       0.066813       0.000452
 4991   0.015179   -10.642157    -10.129620       0.066813       0.000452
 4992   0.015175   -10.659370    -10.145526       0.066813       0.000452
 4993   0.015171   -10.674037    -10.158190       0.066813       0.000452
 4994   0.015167   -10.695407    -10.180945       0.066813       0.000452
 4995   0.015165   -10.714160    -10.199380       0.066813       0.000452
 4996   0.015162   -10.721523    -10.202013       0.066813       0.000452
 4997   0.015166   -10.731415    -10.209742       0.066813       0.000452

---------------------- Local Time Stepping Summary ----------------------
MG level: 0 -> Min. DT: 0.000497809. Max. DT: 3.6287. CFL: 10.
MG level: 1 -> Min. DT: 0.000799997. Max. DT: 5.71116. CFL: 8.35917.
MG level: 2 -> Min. DT: 0.00155937. Max. DT: 8.31073. CFL: 7.39444.
-------------------------------------------------------------------------

----------------------- Residual Evolution Summary ----------------------
log10[Maximum residual]: -9.54921.
Maximum residual point 436, located at (0.36366, 0.0609844).
-------------------------------------------------------------------------

 Iter    Time(s)     Res[Rho]     Res[RhoE]      CL(Total)      CD(Total)
 4998   0.015166   -10.748546    -10.228053       0.066813       0.000452
 4999   0.015166   -10.756418    -10.232925       0.066813       0.000452
 5000   0.015170   -10.754169    -10.225034       0.066813       0.000452
 5001   0.015168   -10.760977    -10.230761       0.066813       0.000452
 5002   0.015162   -10.775276    -10.246709       0.066813       0.000452
 5003   0.015159   -10.782304    -10.251941       0.066813       0.000452
 5004   0.015156   -10.783063    -10.249106       0.066813       0.000452
 5005   0.015152   -10.791428    -10.257081       0.066813       0.000452
 5006   0.015147   -10.807008    -10.274611       0.066813       0.000452
 5007   0.015146   -10.818982    -10.286475       0.066813       0.000452
 5008   0.015143   -10.824072    -10.289138       0.066813       0.000452
 5009   0.015144   -10.833570    -10.298143       0.066813       0.000452
 5010   0.015139   -10.850304    -10.316844       0.066813       0.000452
 5011   0.015137   -10.864946    -10.332116       0.066813       0.000452
 5012   0.015133   -10.872149    -10.337351       0.066813       0.000452
 5013   0.015130   -10.882909    -10.347758       0.066813       0.000452
 5014   0.015127   -10.901489    -10.368736       0.066813       0.000452
 5015   0.015124   -10.916706    -10.384623       0.066813       0.000452
 5016   0.015120   -10.923505    -10.389208       0.066813       0.000452
 5017   0.015118   -10.936042    -10.401982       0.066813       0.000452
 5018   0.015137   -10.956552    -10.425570       0.066813       0.000452
 5019   0.015133   -10.968703    -10.437255       0.066813       0.000452
 5020   0.015128   -10.974932    -10.441193       0.066813       0.000452
 5021   0.015152   -10.992679    -10.461126       0.066813       0.000452
 5022   0.015148   -11.013358    -10.484743       0.066813       0.000452
 5023   0.015144   -11.018621    -10.487057       0.066813       0.000452
 5024   0.015139   -11.028253    -10.495796       0.066813       0.000452
 5025   0.015136   -11.052616    -10.524908       0.066813       0.000452
 5026   0.015131   -11.064859    -10.536645       0.066813       0.000452
 5027   0.015136   -11.066808    -10.534746       0.066813       0.000452
 5028   0.015135   -11.087420    -10.558696       0.066813       0.000452
 5029   0.015132   -11.110832    -10.586088       0.066813       0.000452
 5030   0.015133   -11.111014    -10.581338       0.066813       0.000452
 5031   0.015131   -11.121564    -10.591237       0.066813       0.000452
 5032   0.015127   -11.150992    -10.627457       0.066813       0.000452
 5033   0.015126   -11.158399    -10.632254       0.066813       0.000452
 5034   0.015130   -11.158224    -10.627427       0.066813       0.000452
 5035   0.015155   -11.184420    -10.659178       0.066813       0.000452
 5036   0.015152   -11.208510    -10.687142       0.066813       0.000452
 5037   0.015151   -11.201512    -10.672587       0.066813       0.000452

---------------------- Local Time Stepping Summary ----------------------
MG level: 0 -> Min. DT: 0.000497809. Max. DT: 3.6287. CFL: 10.
MG level: 1 -> Min. DT: 0.000799997. Max. DT: 5.71116. CFL: 8.35917.
MG level: 2 -> Min. DT: 0.00155937. Max. DT: 8.31073. CFL: 7.39444.
-------------------------------------------------------------------------

----------------------- Residual Evolution Summary ----------------------
log10[Maximum residual]: -10.0902.
Maximum residual point 435, located at (0.33346, 0.0601559).
-------------------------------------------------------------------------

 Iter    Time(s)     Res[Rho]     Res[RhoE]      CL(Total)      CD(Total)
 5038   0.015151   -11.213704    -10.684789       0.066813       0.000452
 5039   0.015148   -11.249897    -10.730756       0.066813       0.000452
 5040   0.015145   -11.253321    -10.729477       0.066813       0.000452
 5041   0.015142   -11.246184    -10.715368       0.066813       0.000452
 5042   0.015137   -11.272756    -10.748069       0.066813       0.000452
 5043   0.015152   -11.303922    -10.786244       0.066813       0.000452
 5044   0.015152   -11.292936    -10.765936       0.066813       0.000452
 5045   0.015149   -11.294097    -10.763335       0.066813       0.000452
 5046   0.015148   -11.322373    -10.798991       0.066813       0.000452
 5047   0.015144   -11.337621    -10.815321       0.066813       0.000452
 5048   0.015144   -11.326271    -10.796027       0.066813       0.000452

-------------------------- File Output Summary --------------------------
Writing comma-separated values (CSV) surface files.
Merging coordinates in the Master node.
Merging solution in the Master node.
Writing SU2 native restart file.
Writing the forces breakdown file.
-------------------------------------------------------------------------

 5049   0.015327   -11.333550    -10.802452       0.066813       0.000452
 5050   0.015323   -11.347244    -10.818664       0.066813       0.000452
 5051   0.015319   -11.358369    -10.830393       0.066813       0.000452
 5052   0.015315   -11.354742    -10.822460       0.066813       0.000452
 5053   0.015312   -11.361899    -10.829166       0.066813       0.000452
 5054   0.015308   -11.374679    -10.843802       0.066813       0.000452
 5055   0.015304   -11.392647    -10.864583       0.066813       0.000452
 5056   0.015300   -11.390030    -10.857774       0.066813       0.000452
 5057   0.015296   -11.403810    -10.872723       0.066813       0.000452
 5058   0.015295   -11.423876    -10.896090       0.066813       0.000452
 5059   0.015291   -11.444033    -10.918967       0.066813       0.000452
 5060   0.015292   -11.435937    -10.904634       0.066813       0.000452
 5061   0.015295   -11.468602    -10.944923       0.066813       0.000452
 5062   0.015291   -11.491622    -10.970734       0.066813       0.000452
 5063   0.015289   -11.481490    -10.952744       0.066813       0.000452
 5064   0.015285   -11.497152    -10.969361       0.066813       0.000452
 5065   0.015281   -11.531248    -11.014189       0.066813       0.000452
 5066   0.015278   -11.519871    -10.994742       0.066813       0.000452
 5067   0.015274   -11.559180    -11.042203       0.066813       0.000452
 5068   0.015271   -11.581621    -11.066857       0.066813       0.000452
 5069   0.015269   -11.564524    -11.039263       0.066813       0.000452
 5070   0.015271   -11.615451    -11.104011       0.066813       0.000452
 5071   0.015268   -11.630415    -11.117386       0.066813       0.000452
 5072   0.015266   -11.610445    -11.085444       0.066813       0.000452
 5073   0.015264   -11.663771    -11.154731       0.066813       0.000452
 5074   0.015262   -11.677398    -11.165251       0.066813       0.000452
 5075   0.015260   -11.675528    -11.154796       0.066813       0.000452
 5076   0.015257   -11.709780    -11.197579       0.066813       0.000452
 5077   0.015259   -11.715784    -11.198668       0.066813       0.000452

---------------------- Local Time Stepping Summary ----------------------
MG level: 0 -> Min. DT: 0.000497809. Max. DT: 3.6287. CFL: 10.
MG level: 1 -> Min. DT: 0.000799997. Max. DT: 5.71116. CFL: 8.35917.
MG level: 2 -> Min. DT: 0.00155937. Max. DT: 8.31073. CFL: 7.39444.
-------------------------------------------------------------------------

----------------------- Residual Evolution Summary ----------------------
log10[Maximum residual]: -10.6024.
Maximum residual point 436, located at (0.36366, 0.0609844).
-------------------------------------------------------------------------

 Iter    Time(s)     Res[Rho]     Res[RhoE]      CL(Total)      CD(Total)
 5078   0.015258   -11.732158    -11.214007       0.066813       0.000452
 5079   0.015254   -11.748753    -11.231234       0.066813       0.000452
 5080   0.015253   -11.762304    -11.243207       0.066813       0.000452
 5081   0.015252   -11.779266    -11.260975       0.066813       0.000452
 5082   0.015266   -11.781194    -11.258040       0.066813       0.000452
 5083   0.015261   -11.790476    -11.266369       0.066813       0.000452
 5084   0.015261   -11.812732    -11.293744       0.066813       0.000452
 5085   0.015275   -11.819265    -11.296668       0.066813       0.000452
 5086   0.015272   -11.842134    -11.322895       0.066813       0.000452
 5087   0.015269   -11.854125    -11.334120       0.066813       0.000452
 5088   0.015267   -11.843901    -11.315401       0.066813       0.000452
 5089   0.015264   -11.871187    -11.351244       0.066813       0.000452
 5090   0.015260   -11.887429    -11.368158       0.066813       0.000452
 5091   0.015258   -11.901481    -11.380293       0.066813       0.000452
 5092   0.015257   -11.913686    -11.393174       0.066813       0.000452
 5093   0.015255   -11.935854    -11.417598       0.066813       0.000452
 5094   0.015252   -11.946203    -11.426515       0.066813       0.000452
 5095   0.015248   -11.940232    -11.414280       0.066813       0.000452
 5096   0.015247   -11.968272    -11.449797       0.066813       0.000452
 5097   0.015243   -11.985635    -11.467747       0.066813       0.000452
 5098   0.015259   -12.002795    -11.484075       0.066813       0.000452
 5099   0.015268   -12.010415    -11.488785       0.066813       0.000452
 5100   0.015265   -12.031403    -11.512954       0.066813       0.000452
 5101   0.015264   -12.041153    -11.520993       0.066813       0.000452
 5102   0.015261   -12.074345    -11.560877       0.066813       0.000452
 5103   0.015257   -12.073385    -11.552730       0.066813       0.000452
 5104   0.015252   -12.089725    -11.570261       0.066813       0.000452
 5105   0.015249   -12.113594    -11.598221       0.066813       0.000452
 5106   0.015249   -12.132108    -11.616431       0.066813       0.000452
 5107   0.015245   -12.115435    -11.588462       0.066813       0.000452
 5108   0.015245   -12.153203    -11.640252       0.066813       0.000452
 5109   0.015241   -12.168677    -11.654040       0.066813       0.000452
 5110   0.015240   -12.190940    -11.676611       0.066813       0.000452
 5111   0.015237   -12.183760    -11.660667       0.066813       0.000452
 5112   0.015235   -12.218323    -11.706862       0.066813       0.000452
 5113   0.015234   -12.230157    -11.715755       0.066813       0.000452
 5114   0.015230   -12.250909    -11.736881       0.066813       0.000452
 5115   0.015238   -12.243972    -11.721676       0.066813       0.000452
 5116   0.015241   -12.274392    -11.761389       0.066813       0.000452
 5117   0.015239   -12.294578    -11.783231       0.066813       0.000452

---------------------- Local Time Stepping Summary ----------------------
MG level: 0 -> Min. DT: 0.000497809. Max. DT: 3.6287. CFL: 10.
MG level: 1 -> Min. DT: 0.000799997. Max. DT: 5.71116. CFL: 8.35917.
MG level: 2 -> Min. DT: 0.00155937. Max. DT: 8.31073. CFL: 7.39444.
-------------------------------------------------------------------------

----------------------- Residual Evolution Summary ----------------------
log10[Maximum residual]: -11.147.
Maximum residual point 378, located at (0.394397, 0.0615101).
-------------------------------------------------------------------------

 Iter    Time(s)     Res[Rho]     Res[RhoE]      CL(Total)      CD(Total)
 5118   0.015236   -12.291252    -11.770955       0.066813       0.000452
 5119   0.015238   -12.324343    -11.814183       0.066813       0.000452
 5120   0.015235   -12.320430    -11.802438       0.066813       0.000452
 5121   0.015232   -12.313036    -11.788604       0.066813       0.000452
 5122   0.015230   -12.363251    -11.858748       0.066813       0.000452
 5123   0.015228   -12.367104    -11.854158       0.066813       0.000452
 5124   0.015225   -12.354413    -11.829713       0.066813       0.000452
 5125   0.015222   -12.396404    -11.886233       0.066813       0.000452
 5126   0.015222   -12.416593    -11.907625       0.066813       0.000452
 5127   0.015220   -12.385900    -11.859178       0.066813       0.000452
 5128   0.015223   -12.425615    -11.912142       0.066813       0.000452
 5129   0.015221   -12.454765    -11.949243       0.066813       0.000452
 5130   0.015221   -12.430218    -11.908152       0.066813       0.000452
 5131   0.015219   -12.458478    -11.943030       0.066813       0.000452
 5132   0.015217   -12.490033    -11.983394       0.066813       0.000452
 5133   0.015215   -12.494097    -11.980235       0.066813       0.000452
 5134   0.015211   -12.539835    -12.037479       0.066813       0.000452
 5135   0.015210   -12.532756    -12.018437       0.066813       0.000452
 5136   0.015208   -12.527508    -12.005339       0.066813       0.000452
 5137   0.015205   -12.581680    -12.081036       0.066813       0.000452
 5138   0.015209   -12.581806    -12.070999       0.066813       0.000452
 5139   0.015209   -12.579211    -12.058421       0.066813       0.000452
 5140   0.015206   -12.600730    -12.083171       0.066813       0.000452
 5141   0.015204   -12.639215    -12.132780       0.066813       0.000452
 5142   0.015203   -12.654139    -12.143195       0.066813       0.000452
 5143   0.015200   -12.647997    -12.125925       0.066813       0.000452
 5144   0.015199   -12.682391    -12.170771       0.066813       0.000452
 5145   0.015197   -12.676675    -12.156575       0.066813       0.000452
 5146   0.015195   -12.726551    -12.222148       0.066813       0.000452
 5147   0.015194   -12.743325    -12.235484       0.066813       0.000452
 5148   0.015199   -12.718533    -12.193563       0.066813       0.000452
 5149   0.015220   -12.757792    -12.245501       0.066813       0.000452
 5150   0.015218   -12.779587    -12.270951       0.066813       0.000452
 5151   0.015227   -12.820285    -12.317124       0.066813       0.000452
 5152   0.015231   -12.840948    -12.333298       0.066813       0.000452
 5153   0.015231   -12.835654    -12.316790       0.066813       0.000452
 5154   0.015227   -12.874250    -12.365858       0.066813       0.000452
 5155   0.015226   -12.883009    -12.369924       0.066813       0.000452
 5156   0.015223   -12.839926    -12.307304       0.066813       0.000452
 5157   0.015221   -12.891683    -12.379424       0.066813       0.000452

---------------------- Local Time Stepping Summary ----------------------
MG level: 0 -> Min. DT: 0.000497809. Max. DT: 3.6287. CFL: 10.
MG level: 1 -> Min. DT: 0.000799997. Max. DT: 5.71116. CFL: 8.35917.
MG level: 2 -> Min. DT: 0.00155937. Max. DT: 8.31073. CFL: 7.39444.
-------------------------------------------------------------------------

----------------------- Residual Evolution Summary ----------------------
log10[Maximum residual]: -11.7618.
Maximum residual point 436, located at (0.36366, 0.0609844).
-------------------------------------------------------------------------

 Iter    Time(s)     Res[Rho]     Res[RhoE]      CL(Total)      CD(Total)
 5158   0.015218   -12.931842    -12.429412       0.066813       0.000452
 5159   0.015216   -12.950942    -12.442199       0.066813       0.000452
 5160   0.015215   -12.953552    -12.435576       0.066813       0.000452
 5161   0.015212   -12.972359    -12.455727       0.066813       0.000452
 5162   0.015210   -12.971696    -12.448371       0.066813       0.000452
 5163   0.015212   -12.996670    -12.477924       0.066813       0.000452
 5164   0.015214   -13.005595    -12.484844       0.066813       0.000452

-------------------------- File Output Summary --------------------------
Writing comma-separated values (CSV) surface files.
Merging coordinates in the Master node.
Merging solution in the Master node.
Writing SU2 native restart file.
Writing the forces breakdown file.
-------------------------------------------------------------------------

History file, closed.

------------------------- Solver Postprocessing -------------------------
Deleted CNumerics container.
Deleted CIntegration container.
Deleted CSolver container.
Deleted CIteration container.
Deleted CInterpolator container.
Deleted CTransfer container.
Deleted CGeometry container.
Deleted CFreeFormDefBox class.
Deleted CSurfaceMovement class.
Deleted CVolumetricMovement class.
Deleted CConfig container.
Deleted COutput class.
-------------------------------------------------------------------------

Completed in 5.639047 seconds on 8 cores.

------------------------- Exit Success (SU2_CFD) ------------------------


-------------------------------------------------------------------------
|    ___ _   _ ___                                                      |
|   / __| | | |_  )   Release 5.0.0  "Raven"                            |
|   \__ \ |_| |/ /                                                      |
|   |___/\___//___|   Suite (Solution Exporting Code)                   |
|                                                                       |
-------------------------------------------------------------------------
| SU2 Original Developers: Dr. Francisco D. Palacios.                   |
|                          Dr. Thomas D. Economon.                      |
-------------------------------------------------------------------------
| SU2 Developers:                                                       |
| - Prof. Juan J. Alonso's group at Stanford University.                |
| - Prof. Piero Colonna's group at Delft University of Technology.      |
| - Prof. Nicolas R. Gauger's group at Kaiserslautern U. of Technology. |
| - Prof. Alberto Guardone's group at Polytechnic University of Milan.  |
| - Prof. Rafael Palacios' group at Imperial College London.            |
| - Prof. Edwin van der Weide's group at the University of Twente.      |
| - Prof. Vincent Terrapon's group at the University of Liege.          |
-------------------------------------------------------------------------
| Copyright (C) 2012-2017 SU2, the open-source CFD code.                |
|                                                                       |
| SU2 is free software; you can redistribute it and/or                  |
| modify it under the terms of the GNU Lesser General Public            |
| License as published by the Free Software Foundation; either          |
| version 2.1 of the License, or (at your option) any later version.    |
|                                                                       |
| SU2 is distributed in the hope that it will be useful,                |
| but WITHOUT ANY WARRANTY; without even the implied warranty of        |
| MERCHANTABILITY or FITNESS FOR A PARTICULAR PURPOSE. See the GNU      |
| Lesser General Public License for more details.                       |
|                                                                       |
| You should have received a copy of the GNU Lesser General Public      |
| License along with SU2. If not, see <http://www.gnu.org/licenses/>.   |
-------------------------------------------------------------------------

------------------------ Physical Case Definition -----------------------
Input mesh file name: mesh_NACA0012_inv_deform.su2

-------------------------- Output Information ---------------------------
The output file format is Tecplot ASCII (.dat).
Flow variables file name: flow.

------------------- Config File Boundary Information --------------------
Euler wall boundary marker(s): airfoil.
Far-field boundary marker(s): farfield.

---------------------- Read Grid File Information -----------------------
Two dimensional problem.
5233 points before parallel partitioning.
Performing linear partitioning of the grid nodes.
10216 interior elements before parallel partitioning.
Calling the partitioning functions.
Building the graph adjacency structure.
Distributing elements across all ranks.
2 surface markers.
200 boundary elements in index 0 (Marker = airfoil).
50 boundary elements in index 1 (Marker = farfield).
Calling ParMETIS...
Finished partitioning using ParMETIS (547 edge cuts).
Communicating partition data and creating halo layers.
10763 interior elements including halo cells. 
10763 triangles.
5796 vertices including ghost points. 
Establishing MPI communication patterns.
Identify vertices.

------------------------- Solution Postprocessing -----------------------
Reading and storing the solution from restart_flow.dat.
Merging connectivities in the Master node.
Merging solution in the Master node.
Writing Tecplot ASCII file (volume grid).
Writing Tecplot ASCII file (surface grid).

Completed in 0.100253 seconds on 8 cores.

------------------------- Exit Success (SU2_SOL) ------------------------

