
-------------------------------------------------------------------------
|    ___ _   _ ___                                                      |
|   / __| | | |_  )   Release 5.0.0  "Raven"                            |
|   \__ \ |_| |/ /                                                      |
|   |___/\___//___|   Suite (Computational Fluid Dynamics Code)         |
|                                                                       |
-------------------------------------------------------------------------
| SU2 Original Developers: Dr. Francisco D. Palacios.                   |
|                          Dr. Thomas D. Economon.                      |
-------------------------------------------------------------------------
| SU2 Developers:                                                       |
| - Prof. Juan J. Alonso's group at Stanford University.                |
| - Prof. Piero Colonna's group at Delft University of Technology.      |
| - Prof. Nicolas R. Gauger's group at Kaiserslautern U. of Technology. |
| - Prof. Alberto Guardone's group at Polytechnic University of Milan.  |
| - Prof. Rafael Palacios' group at Imperial College London.            |
| - Prof. Edwin van der Weide's group at the University of Twente.      |
| - Prof. Vincent Terrapon's group at the University of Liege.          |
-------------------------------------------------------------------------
| Copyright (C) 2012-2017 SU2, the open-source CFD code.                |
|                                                                       |
| SU2 is free software; you can redistribute it and/or                  |
| modify it under the terms of the GNU Lesser General Public            |
| License as published by the Free Software Foundation; either          |
| version 2.1 of the License, or (at your option) any later version.    |
|                                                                       |
| SU2 is distributed in the hope that it will be useful,                |
| but WITHOUT ANY WARRANTY; without even the implied warranty of        |
| MERCHANTABILITY or FITNESS FOR A PARTICULAR PURPOSE. See the GNU      |
| Lesser General Public License for more details.                       |
|                                                                       |
| You should have received a copy of the GNU Lesser General Public      |
| License along with SU2. If not, see <http://www.gnu.org/licenses/>.   |
-------------------------------------------------------------------------

------------------------ Physical Case Definition -----------------------
Compressible Euler equations.
Mach number: 0.8.
Angle of attack (AoA): 1.25 deg, and angle of sideslip (AoS): 0 deg.
Read flow solution from: solution_flow.dat.
Non-Dimensional simulation (P=1.0, Rho=1.0, T=1.0 at the farfield).
The reference length/area (force coefficient) is 1.
The reference length (moment computation) is 1.
Reference origin (moment computation) is (0.25, 0, 0).
Surface(s) where the force coefficients are evaluated: airfoil.
Surface(s) plotted in the output file: airfoil.
Surface(s) affected by the design variables: airfoil.
Input mesh file name: mesh_NACA0012_inv_deform.su2

---------------------- Space Numerical Integration ----------------------
Jameson-Schmidt-Turkel scheme for the flow inviscid terms.
JST viscous coefficients (1st, 2nd & 4th): 0.15, 0.5, 0.02.
The method includes a grid stretching correction (p = 0.3).
Second order integration.
Gradient computation using Green-Gauss theorem.

---------------------- Time Numerical Integration -----------------------
Local time stepping (steady state simulation).
Euler implicit method for the flow equations.
V Multigrid Cycle, with 2 multigrid levels.
Damping factor for the residual restriction: 1.
Damping factor for the correction prolongation: 1.
No CFL adaptation.
Multigrid Level:                       0     1     2
Courant-Friedrichs-Lewy number:       10
MG PreSmooth coefficients:             1     2     3
MG PostSmooth coefficients:            0     0     0
MG CorrecSmooth coefficients:          0     0     0

------------------------- Convergence Criteria --------------------------
Maximum number of iterations: 1000.
Reduce the density residual 6 orders of magnitude.
The minimum bound for the density residual is 10^(-10).
Start convergence criteria at iteration 10.

-------------------------- Output Information ---------------------------
Writing a flow solution every 250 iterations.
Writing the convergence history every 1 iterations.
The output file format is Paraview ASCII (.vtk).
Convergence history file name: history_direct.
Forces breakdown file name: forces_breakdown.dat.
Surface flow coefficients file name: surface_flow.
Flow variables file name: flow.
Restart flow file name: restart_flow.dat.

------------------- Config File Boundary Information --------------------
Euler wall boundary marker(s): airfoil.
Far-field boundary marker(s): farfield.

---------------------- Read Grid File Information -----------------------
Two dimensional problem.
5233 points.
2 surface markers.
200 boundary elements in index 0 (Marker = airfoil).
50 boundary elements in index 1 (Marker = farfield).
10216 triangles.

------------------------- Geometry Preprocessing ------------------------
Setting point connectivity.
Renumbering points (Reverse Cuthill McKee Ordering).
Recomputing point connectivity.
Setting element connectivity.
Checking the numerical grid orientation.
Identifying edges and vertices.
Computing centers of gravity.
Setting the control volume structure.
Area of the computational grid: 1.25e+03.
Searching for the closest normal neighbors to the surfaces.
Compute the surface curvature.
Max K: 7.84e+03. Mean K: 35.6. Standard deviation K: 494.
Checking for periodicity.
Setting the multigrid structure.
MG level: 0 -> CVs: 5233. Agglomeration rate 1/1.00. CFL 10.
MG level: 1 -> CVs: 1533. Agglomeration rate 1/3.41. CFL 8.12.
MG level: 2 -> CVs: 443. Agglomeration rate 1/3.46. CFL 6.55.
Computing wall distances.
Wetted area = 2.03 m.
Area projection in the x-plane = 0.108 m, y-plane = 1 m.

------------------------- Driver information --------------------------
A Fluid driver has been instantiated.

------------------------ Iteration Preprocessing ------------------------
Zone 1: Euler/Navier-Stokes/RANS flow iteration.

------------------------- Solver Preprocessing --------------------------
Inviscid flow: Computing density based on free-stream
temperature and pressure using the ideal gas law.
Force coefficients computed using free-stream values.
-- Input conditions:
Fluid Model: STANDARD_AIR 
Specific gas constant: 287.058 N.m/kg.K.
Specific gas constant (non-dim): 1
Specific Heat Ratio: 1.4
Free-stream static pressure: 101325 Pa.
Free-stream total pressure: 154454 Pa.
Free-stream temperature: 288.15 K.
Free-stream density: 1.22498 kg/m^3.
Free-stream velocity: (272.173, 5.93883) m/s. Magnitude: 272.238 m/s (529.186 KTS).
Free-stream total energy per unit mass: 243846 m^2/s^2.
-- Reference values:
Reference specific gas constant: 287.058 N.m/kg.K.
Reference pressure: 101325 Pa.
Reference temperature: 288.15 K.
Reference density: 1.22498 kg/m^3.
Reference velocity: 287.603 m/s.
Reference energy per unit mass: 82715.8 m^2/s^2.
-- Resulting non-dimensional state:
Mach number (non-dim): 0.8
Specific gas constant (non-dim): 1
Free-stream temperature (non-dim): 1
Free-stream pressure (non-dim): 1
Free-stream density (non-dim): 1
Free-stream velocity (non-dim): (0.946348, 0.0206494). Magnitude: 0.946573
Free-stream total energy per unit mass (non-dim): 2.948

Initialize Jacobian structure (Euler). MG level: 0.
Initialize Jacobian structure (Euler). MG level: 1.
Initialize Jacobian structure (Euler). MG level: 2.

----------------- Integration and Numerics Preprocessing ----------------
Integration Preprocessing.
Numerics Preprocessing.

------------------------------ Begin Solver -----------------------------

---------------------- Local Time Stepping Summary ----------------------
MG level: 0 -> Min. DT: 0.000497771. Max. DT: 3.62809. CFL: 10.
MG level: 1 -> Min. DT: 0.00078446. Max. DT: 5.54624. CFL: 8.11871.
MG level: 2 -> Min. DT: 0.00104938. Max. DT: 7.4136. CFL: 6.5465.
-------------------------------------------------------------------------

----------------------- Residual Evolution Summary ----------------------
log10[Maximum residual]: -4.27335.
Maximum residual point 105, located at (0.00752, 0.0119207).
-------------------------------------------------------------------------

 Iter    Time(s)     Res[Rho]     Res[RhoE]      CL(Total)      CD(Total)
 2825   0.054270    -5.376096     -4.779717       0.066028       0.002562
 2826   0.052902    -5.440111     -4.837434       0.065462       0.001848
 2827   0.052656    -5.455259     -4.858254       0.064995       0.001601
 2828   0.051948    -5.424209     -4.823508       0.064401       0.001360
 2829   0.051293    -5.368356     -4.765648       0.063802       0.001167
 2830   0.050909    -5.334153     -4.733208       0.063152       0.001016
 2831   0.050578    -5.318408     -4.719857       0.062481       0.000918
 2832   0.050554    -5.307283     -4.709978       0.061851       0.000839
 2833   0.050303    -5.299484     -4.703034       0.061280       0.000788
 2834   0.050280    -5.290071     -4.693395       0.060773       0.000733
 2835   0.050088    -5.281369     -4.684098       0.060306       0.000681
 2836   0.050071    -5.281713     -4.684654       0.059864       0.000648
 2837   0.050122    -5.290348     -4.693883       0.059453       0.000621
 2838   0.050174    -5.305133     -4.709218       0.059071       0.000595
 2839   0.050092    -5.323965     -4.728128       0.058714       0.000570
 2840   0.050906    -5.344547     -4.747770       0.058379       0.000546
 2841   0.051047    -5.364623     -4.765510       0.058064       0.000523
 2842   0.051802    -5.383183     -4.780542       0.057765       0.000500
 2843   0.052343    -5.401718     -4.795238       0.057480       0.000479
 2844   0.052208    -5.423777     -4.814299       0.057206       0.000458
 2845   0.052018    -5.453657     -4.843040       0.056940       0.000438
 2846   0.051885    -5.493652     -4.884473       0.056680       0.000419
 2847   0.051725    -5.540493     -4.935393       0.056431       0.000404
 2848   0.051743    -5.586799     -4.987542       0.056193       0.000394
 2849   0.051741    -5.625429     -5.032252       0.055971       0.000388
 2850   0.051611    -5.653927     -5.066041       0.055767       0.000388
 2851   0.051512    -5.672897     -5.089241       0.055580       0.000391
 2852   0.051446    -5.684813     -5.104642       0.055412       0.000397
 2853   0.051397    -5.691870     -5.114649       0.055258       0.000403
 2854   0.051733    -5.696135     -5.121395       0.055118       0.000408
 2855   0.051732    -5.698529     -5.125561       0.054987       0.000413
 2856   0.051686    -5.700188     -5.128279       0.054864       0.000417
 2857   0.051608    -5.702885     -5.131726       0.054749       0.000421
 2858   0.051829    -5.707532     -5.137130       0.054640       0.000424
 2859   0.052021    -5.714235     -5.144727       0.054536       0.000426
 2860   0.052004    -5.723379     -5.155090       0.054437       0.000428
 2861   0.052032    -5.735723     -5.169255       0.054342       0.000430
 2862   0.052072    -5.752027     -5.188290       0.054250       0.000432
 2863   0.052055    -5.772852     -5.213108       0.054160       0.000435
 2864   0.051960    -5.798065     -5.243834       0.054074       0.000439

---------------------- Local Time Stepping Summary ----------------------
MG level: 0 -> Min. DT: 0.000497736. Max. DT: 3.6281. CFL: 10.
MG level: 1 -> Min. DT: 0.000784566. Max. DT: 5.54633. CFL: 8.11871.
MG level: 2 -> Min. DT: 0.00104932. Max. DT: 7.41368. CFL: 6.5465.
-------------------------------------------------------------------------

----------------------- Residual Evolution Summary ----------------------
log10[Maximum residual]: -4.75212.
Maximum residual point 1678, located at (0.554192, 0.250728).
-------------------------------------------------------------------------

 Iter    Time(s)     Res[Rho]     Res[RhoE]      CL(Total)      CD(Total)
 2865   0.051977    -5.826583     -5.279320       0.053992       0.000443
 2866   0.051891    -5.856529     -5.317130       0.053913       0.000447
 2867   0.051825    -5.885634     -5.353933       0.053838       0.000451
 2868   0.051759    -5.911639     -5.386345       0.053767       0.000454
 2869   0.051720    -5.932028     -5.411048       0.053701       0.000456
 2870   0.051673    -5.943097     -5.422992       0.053641       0.000458
 2871   0.051626    -5.944825     -5.421949       0.053586       0.000461
 2872   0.051577    -5.944568     -5.418739       0.053538       0.000464
 2873   0.051516    -5.946158     -5.418798       0.053496       0.000466
 2874   0.051450    -5.950795     -5.423551       0.053458       0.000468
 2875   0.051391    -5.959839     -5.434395       0.053423       0.000469
 2876   0.051351    -5.968267     -5.443392       0.053391       0.000468
 2877   0.051290    -5.967856     -5.439684       0.053362       0.000468
 2878   0.051298    -5.967982     -5.437640       0.053337       0.000466
 2879   0.051283    -5.969941     -5.438451       0.053314       0.000465
 2880   0.051235    -5.973549     -5.441312       0.053295       0.000464
 2881   0.051244    -5.980081     -5.448109       0.053278       0.000463
 2882   0.051275    -5.988310     -5.457184       0.053264       0.000462
 2883   0.051244    -5.997630     -5.467626       0.053252       0.000461
 2884   0.051192    -6.007989     -5.479369       0.053242       0.000461
 2885   0.051136    -6.019563     -5.492708       0.053233       0.000461
 2886   0.051194    -6.032756     -5.508141       0.053226       0.000461
 2887   0.051191    -6.047650     -5.525677       0.053221       0.000462
 2888   0.051160    -6.063801     -5.544577       0.053217       0.000462
 2889   0.051120    -6.079423     -5.562155       0.053214       0.000463
 2890   0.051086    -6.100378     -5.588937       0.053212       0.000464
 2891   0.051076    -6.113650     -5.601896       0.053211       0.000464
 2892   0.051050    -6.108651     -5.588754       0.053210       0.000465
 2893   0.051064    -6.106472     -5.582148       0.053208       0.000466
 2894   0.051060    -6.115382     -5.591734       0.053206       0.000466
 2895   0.051050    -6.122086     -5.597655       0.053203       0.000466
 2896   0.051017    -6.132957     -5.608852       0.053199       0.000467
 2897   0.050978    -6.144997     -5.621432       0.053194       0.000467
 2898   0.050965    -6.156721     -5.633210       0.053189       0.000467
 2899   0.050924    -6.167232     -5.642955       0.053182       0.000467
 2900   0.050891    -6.175208     -5.649132       0.053175       0.000467
 2901   0.050898    -6.181640     -5.653408       0.053168       0.000466
 2902   0.050903    -6.187955     -5.657790       0.053160       0.000466
 2903   0.050883    -6.195282     -5.663700       0.053151       0.000466
 2904   0.050846    -6.204579     -5.672323       0.053142       0.000466

---------------------- Local Time Stepping Summary ----------------------
MG level: 0 -> Min. DT: 0.000497769. Max. DT: 3.6281. CFL: 10.
MG level: 1 -> Min. DT: 0.000784511. Max. DT: 5.54634. CFL: 8.11871.
MG level: 2 -> Min. DT: 0.00104919. Max. DT: 7.41368. CFL: 6.5465.
-------------------------------------------------------------------------

----------------------- Residual Evolution Summary ----------------------
log10[Maximum residual]: -5.01827.
Maximum residual point 261, located at (0.583349, 0.0571715).
-------------------------------------------------------------------------

 Iter    Time(s)     Res[Rho]     Res[RhoE]      CL(Total)      CD(Total)
 2905   0.050823    -6.216540     -5.684503       0.053133       0.000465
 2906   0.050840    -6.231505     -5.700680       0.053124       0.000465
 2907   0.050830    -6.249546     -5.720917       0.053114       0.000465
 2908   0.050801    -6.270345     -5.744745       0.053104       0.000465
 2909   0.050782    -6.293374     -5.771413       0.053094       0.000465
 2910   0.050940    -6.317642     -5.799523       0.053084       0.000465
 2911   0.051050    -6.342354     -5.827976       0.053075       0.000465
 2912   0.051143    -6.366687     -5.855657       0.053065       0.000465
 2913   0.051201    -6.389477     -5.880890       0.053056       0.000465
 2914   0.051213    -6.407927     -5.899625       0.053046       0.000465
 2915   0.051231    -6.418381     -5.907183       0.053038       0.000465
 2916   0.051277    -6.426602     -5.912533       0.053029       0.000465
 2917   0.051354    -6.437160     -5.922178       0.053022       0.000465
 2918   0.051366    -6.449220     -5.934022       0.053014       0.000465
 2919   0.051341    -6.461380     -5.945327       0.053008       0.000465
 2920   0.051340    -6.473139     -5.955605       0.053002       0.000465
 2921   0.051360    -6.485335     -5.966417       0.052996       0.000465
 2922   0.051365    -6.498463     -5.978549       0.052991       0.000465
 2923   0.051337    -6.512816     -5.992349       0.052987       0.000465
 2924   0.051304    -6.528694     -6.008175       0.052983       0.000465
 2925   0.051277    -6.546108     -6.025977       0.052979       0.000465
 2926   0.051249    -6.564769     -6.045313       0.052976       0.000465
 2927   0.051262    -6.584425     -6.065851       0.052973       0.000465
 2928   0.051254    -6.604924     -6.087415       0.052971       0.000465
 2929   0.051239    -6.626141     -6.109876       0.052969       0.000466
 2930   0.051242    -6.648084     -6.133265       0.052967       0.000466
 2931   0.051222    -6.670774     -6.157627       0.052966       0.000466
 2932   0.051239    -6.694150     -6.182842       0.052965       0.000466
 2933   0.051247    -6.718082     -6.208684       0.052963       0.000466
 2934   0.051250    -6.742259     -6.234728       0.052962       0.000466
 2935   0.051261    -6.766574     -6.260828       0.052961       0.000466
 2936   0.051250    -6.790918     -6.286825       0.052960       0.000466
 2937   0.051252    -6.815182     -6.312583       0.052960       0.000466
 2938   0.051223    -6.839199     -6.337854       0.052959       0.000466
 2939   0.051210    -6.862564     -6.362023       0.052958       0.000466
 2940   0.051218    -6.883844     -6.382953       0.052957       0.000466
 2941   0.051211    -6.892848     -6.385931       0.052957       0.000466
 2942   0.051197    -6.910214     -6.405619       0.052956       0.000465
 2943   0.051172    -6.945649     -6.450445       0.052955       0.000466
 2944   0.051154    -6.967318     -6.471035       0.052954       0.000465

---------------------- Local Time Stepping Summary ----------------------
MG level: 0 -> Min. DT: 0.000497787. Max. DT: 3.6281. CFL: 10.
MG level: 1 -> Min. DT: 0.00078449. Max. DT: 5.54634. CFL: 8.11871.
MG level: 2 -> Min. DT: 0.00104917. Max. DT: 7.41369. CFL: 6.5465.
-------------------------------------------------------------------------

----------------------- Residual Evolution Summary ----------------------
log10[Maximum residual]: -5.77975.
Maximum residual point 617, located at (0.560739, 0.0742855).
-------------------------------------------------------------------------

 Iter    Time(s)     Res[Rho]     Res[RhoE]      CL(Total)      CD(Total)
 2945   0.051139    -6.990033     -6.492988       0.052953       0.000466
 2946   0.051136    -7.001566     -6.500054       0.052953       0.000465
 2947   0.051129    -7.034010     -6.538821       0.052952       0.000466
 2948   0.051107    -7.045010     -6.544652       0.052951       0.000465
 2949   0.051099    -7.051508     -6.546215       0.052950       0.000465
 2950   0.051086    -7.032693     -6.513705       0.052950       0.000465
 2951   0.051068    -7.033101     -6.508145       0.052949       0.000465
 2952   0.051047    -7.068131     -6.562394       0.052949       0.000465
 2953   0.051057    -7.090850     -6.586461       0.052948       0.000465
 2954   0.051055    -7.120711     -6.616413       0.052948       0.000465
 2955   0.051043    -7.153125     -6.654945       0.052947       0.000465
 2956   0.051049    -7.174865     -6.675854       0.052947       0.000465
 2957   0.051042    -7.198054     -6.698582       0.052946       0.000465
 2958   0.051024    -7.224625     -6.728233       0.052946       0.000465
 2959   0.051014    -7.235200     -6.733361       0.052946       0.000465
 2960   0.051015    -7.250074     -6.745410       0.052945       0.000465
 2961   0.051015    -7.268629     -6.764400       0.052945       0.000465
 2962   0.050996    -7.286418     -6.782300       0.052944       0.000465
 2963   0.050978    -7.302298     -6.796848       0.052944       0.000465
 2964   0.050964    -7.315591     -6.807745       0.052944       0.000465
 2965   0.050949    -7.327564     -6.817322       0.052943       0.000465
 2966   0.050930    -7.339359     -6.827150       0.052943       0.000465
 2967   0.050918    -7.351088     -6.837130       0.052943       0.000465
 2968   0.050910    -7.362663     -6.846998       0.052943       0.000465
 2969   0.050897    -7.373987     -6.856607       0.052943       0.000465
 2970   0.050881    -7.384938     -6.865804       0.052943       0.000465
 2971   0.050868    -7.395388     -6.874424       0.052943       0.000465
 2972   0.050881    -7.405277     -6.882394       0.052943       0.000465
 2973   0.050883    -7.414670     -6.889822       0.052943       0.000465
 2974   0.050880    -7.423731     -6.896943       0.052943       0.000465
 2975   0.050868    -7.432738     -6.904123       0.052944       0.000465
 2976   0.050860    -7.442008     -6.911780       0.052944       0.000465
 2977   0.050854    -7.451841     -6.920293       0.052944       0.000465
 2978   0.050837    -7.462467     -6.929938       0.052945       0.000465
 2979   0.050825    -7.473989     -6.940826       0.052945       0.000465
 2980   0.050871    -7.486425     -6.952947       0.052945       0.000465
 2981   0.050907    -7.499682     -6.966147       0.052946       0.000465
 2982   0.050899    -7.513590     -6.980171       0.052946       0.000465
 2983   0.050880    -7.527938     -6.994724       0.052947       0.000465
 2984   0.050865    -7.542518     -7.009520       0.052947       0.000465

---------------------- Local Time Stepping Summary ----------------------
MG level: 0 -> Min. DT: 0.000497779. Max. DT: 3.6281. CFL: 10.
MG level: 1 -> Min. DT: 0.000784485. Max. DT: 5.54634. CFL: 8.11871.
MG level: 2 -> Min. DT: 0.00104917. Max. DT: 7.41369. CFL: 6.5465.
-------------------------------------------------------------------------

----------------------- Residual Evolution Summary ----------------------
log10[Maximum residual]: -6.31554.
Maximum residual point 357, located at (0.520348, 0.0600719).
-------------------------------------------------------------------------

 Iter    Time(s)     Res[Rho]     Res[RhoE]      CL(Total)      CD(Total)
 2985   0.050853    -7.557156     -7.024332       0.052947       0.000465
 2986   0.050837    -7.571740     -7.039020       0.052948       0.000465
 2987   0.050823    -7.586234     -7.053550       0.052948       0.000465
 2988   0.050820    -7.600675     -7.067990       0.052949       0.000465
 2989   0.050858    -7.615165     -7.082485       0.052949       0.000465
 2990   0.050876    -7.629841     -7.097231       0.052950       0.000465
 2991   0.050922    -7.644851     -7.112425       0.052950       0.000465
 2992   0.050923    -7.660324     -7.128235       0.052951       0.000465
 2993   0.050935    -7.676348     -7.144774       0.052951       0.000465
 2994   0.050951    -7.692965     -7.162083       0.052952       0.000465
 2995   0.051054    -7.710165     -7.180136       0.052952       0.000465
 2996   0.051070    -7.727896     -7.198848       0.052953       0.000465
 2997   0.051161    -7.746070     -7.218088       0.052953       0.000465
 2998   0.051223    -7.764585     -7.237705       0.052954       0.000465
 2999   0.051243    -7.783330     -7.257541       0.052954       0.000465
 3000   0.051231    -7.802208     -7.277463       0.052955       0.000465
 3001   0.051214    -7.821132     -7.297357       0.052955       0.000465
 3002   0.051198    -7.840068     -7.317178       0.052955       0.000465
 3003   0.051181    -7.859007     -7.336917       0.052956       0.000465
 3004   0.051165    -7.877936     -7.356568       0.052956       0.000465
 3005   0.051154    -7.896908     -7.376214       0.052957       0.000465
 3006   0.051143    -7.915998     -7.395964       0.052957       0.000465
 3007   0.051154    -7.935289     -7.415935       0.052957       0.000465
 3008   0.051223    -7.954821     -7.436178       0.052958       0.000465
 3009   0.051254    -7.974607     -7.456699       0.052958       0.000465
 3010   0.051325    -7.994614     -7.477443       0.052958       0.000465
 3011   0.051345    -8.014818     -7.498379       0.052959       0.000465
 3012   0.051343    -8.035211     -7.519495       0.052959       0.000465
 3013   0.051345    -8.055795     -7.540794       0.052959       0.000465
 3014   0.051348    -8.076542     -7.562236       0.052960       0.000465
 3015   0.051353    -8.097421     -7.583768       0.052960       0.000465
 3016   0.051336    -8.118350     -7.605278       0.052960       0.000465
 3017   0.051330    -8.139250     -7.626672       0.052960       0.000465
 3018   0.051332    -8.160099     -7.647943       0.052961       0.000465
 3019   0.051319    -8.180997     -7.669251       0.052961       0.000465
 3020   0.051304    -8.202102     -7.690831       0.052961       0.000465
 3021   0.051288    -8.223437     -7.712700       0.052961       0.000465
 3022   0.051275    -8.244862     -7.734630       0.052961       0.000465
 3023   0.051267    -8.266112     -7.756241       0.052962       0.000465
 3024   0.051251    -8.287031     -7.777339       0.052962       0.000465

---------------------- Local Time Stepping Summary ----------------------
MG level: 0 -> Min. DT: 0.000497775. Max. DT: 3.6281. CFL: 10.
MG level: 1 -> Min. DT: 0.000784485. Max. DT: 5.54634. CFL: 8.11871.
MG level: 2 -> Min. DT: 0.00104917. Max. DT: 7.41369. CFL: 6.5465.
-------------------------------------------------------------------------

----------------------- Residual Evolution Summary ----------------------
log10[Maximum residual]: -6.99045.
Maximum residual point 362, located at (0.488666, 0.0609712).
-------------------------------------------------------------------------

 Iter    Time(s)     Res[Rho]     Res[RhoE]      CL(Total)      CD(Total)
 3025   0.051235    -8.307634     -7.797995       0.052962       0.000465
 3026   0.051228    -8.328058     -7.818442       0.052962       0.000465
 3027   0.051227    -8.348441     -7.838890       0.052962       0.000465
 3028   0.051221    -8.368842     -7.859412       0.052962       0.000465
 3029   0.051206    -8.389245     -7.879973       0.052962       0.000465
 3030   0.051197    -8.409600     -7.900486       0.052963       0.000465
 3031   0.051185    -8.429832     -7.920841       0.052963       0.000465
 3032   0.051173    -8.449815     -7.940871       0.052963       0.000465
 3033   0.051161    -8.469507     -7.960550       0.052963       0.000465
 3034   0.051151    -8.488973     -7.980009       0.052963       0.000465
 3035   0.051143    -8.508361     -7.999481       0.052963       0.000465
 3036   0.051143    -8.527836     -8.019196       0.052963       0.000465
 3037   0.051149    -8.547496     -8.039269       0.052963       0.000465
 3038   0.051161    -8.567360     -8.059700       0.052963       0.000465
 3039   0.051154    -8.587388     -8.080409       0.052964       0.000465
 3040   0.051152    -8.607500     -8.101276       0.052964       0.000465
 3041   0.051141    -8.627598     -8.122166       0.052964       0.000465
 3042   0.051128    -8.647570     -8.142927       0.052964       0.000465
 3043   0.051116    -8.667268     -8.163360       0.052964       0.000465
 3044   0.051107    -8.686408     -8.183061       0.052964       0.000465
 3045   0.051102    -8.704098     -8.200690       0.052964       0.000465
 3046   0.051092    -8.718349     -8.213403       0.052964       0.000465
 3047   0.051080    -8.729918     -8.222968       0.052964       0.000465
 3048   0.051072    -8.742529     -8.235040       0.052964       0.000465
 3049   0.051061    -8.755186     -8.247286       0.052964       0.000465
 3050   0.051066    -8.766585     -8.257433       0.052964       0.000465
 3051   0.051070    -8.776365     -8.265364       0.052964       0.000465
 3052   0.051056    -8.785170     -8.272342       0.052964       0.000465
 3053   0.051043    -8.793708     -8.279351       0.052964       0.000465
 3054   0.051040    -8.802794     -8.287401       0.052964       0.000465
 3055   0.051030    -8.812731     -8.296740       0.052964       0.000465
 3056   0.051030    -8.823476     -8.307172       0.052965       0.000465
 3057   0.051030    -8.834751     -8.318229       0.052965       0.000465
 3058   0.051036    -8.846200     -8.329405       0.052965       0.000465
 3059   0.051045    -8.857528     -8.340323       0.052965       0.000465
 3060   0.051036    -8.868610     -8.350867       0.052965       0.000465
 3061   0.051026    -8.879512     -8.361185       0.052965       0.000465
 3062   0.051016    -8.890441     -8.371597       0.052965       0.000465
 3063   0.051007    -8.901660     -8.382474       0.052965       0.000465
 3064   0.050994    -8.913413     -8.394134       0.052965       0.000465

---------------------- Local Time Stepping Summary ----------------------
MG level: 0 -> Min. DT: 0.000497775. Max. DT: 3.6281. CFL: 10.
MG level: 1 -> Min. DT: 0.000784485. Max. DT: 5.54634. CFL: 8.11871.
MG level: 2 -> Min. DT: 0.00104917. Max. DT: 7.41369. CFL: 6.5465.
-------------------------------------------------------------------------

----------------------- Residual Evolution Summary ----------------------
log10[Maximum residual]: -7.74464.
Maximum residual point 357, located at (0.520348, 0.0600719).
-------------------------------------------------------------------------

 Iter    Time(s)     Res[Rho]     Res[RhoE]      CL(Total)      CD(Total)
 3065   0.050988    -8.925865     -8.406774       0.052965       0.000465
 3066   0.050994    -8.939090     -8.420456       0.052965       0.000465
 3067   0.051001    -8.953069     -8.435117       0.052965       0.000465
 3068   0.050992    -8.967707     -8.450599       0.052965       0.000465
 3069   0.050983    -8.982857     -8.466674       0.052965       0.000465
 3070   0.050975    -8.998329     -8.483069       0.052965       0.000465
 3071   0.050965    -9.013922     -8.499504       0.052965       0.000465
 3072   0.050955    -9.029447     -8.515727       0.052965       0.000465
 3073   0.050946    -9.044760     -8.531556       0.052965       0.000465
 3074   0.050936    -9.059792     -8.546919       0.052965       0.000465
 3075   0.050924    -9.074559     -8.561872       0.052965       0.000465

-------------------------- File Output Summary --------------------------
Writing comma-separated values (CSV) surface files.
Merging connectivities in the Master node.
Merging coordinates in the Master node.
Merging solution in the Master node.
Writing SU2 native restart file.
Writing Paraview ASCII volume solution file.
Writing Paraview ASCII surface solution file.
Writing the forces breakdown file.
-------------------------------------------------------------------------

 3076   0.051163    -9.089168     -8.576588       0.052965       0.000465
 3077   0.051168    -9.103784     -8.591311       0.052965       0.000465
 3078   0.051167    -9.118589     -8.606300       0.052965       0.000465
 3079   0.051158    -9.133748     -8.621775       0.052965       0.000465
 3080   0.051147    -9.149381     -8.637880       0.052965       0.000465
 3081   0.051136    -9.165550     -8.654677       0.052965       0.000465
 3082   0.051132    -9.182262     -8.672148       0.052965       0.000465
 3083   0.051121    -9.199475     -8.690210       0.052965       0.000465
 3084   0.051113    -9.217106     -8.708729       0.052965       0.000465
 3085   0.051112    -9.235046     -8.727538       0.052965       0.000465
 3086   0.051117    -9.253173     -8.746462       0.052965       0.000465
 3087   0.051116    -9.271374     -8.765351       0.052965       0.000465
 3088   0.051115    -9.289569     -8.784103       0.052965       0.000465
 3089   0.051131    -9.307721     -8.802689       0.052965       0.000465
 3090   0.051125    -9.325841     -8.821147       0.052965       0.000465
 3091   0.051121    -9.343978     -8.839559       0.052965       0.000465
 3092   0.051111    -9.362194     -8.858026       0.052965       0.000465
 3093   0.051102    -9.380555     -8.876640       0.052965       0.000465
 3094   0.051097    -9.399119     -8.895475       0.052965       0.000465
 3095   0.051098    -9.417935     -8.914599       0.052965       0.000465
 3096   0.051094    -9.437042     -8.934061       0.052965       0.000465
 3097   0.051110    -9.456459     -8.953870       0.052965       0.000465
 3098   0.051102    -9.476171     -8.973990       0.052965       0.000465
 3099   0.051091    -9.496112     -8.994312       0.052965       0.000465
 3100   0.051080    -9.516185     -9.014700       0.052965       0.000465
 3101   0.051075    -9.536322     -9.035064       0.052965       0.000465
 3102   0.051069    -9.556483     -9.055366       0.052965       0.000465
 3103   0.051063    -9.576633     -9.075570       0.052965       0.000465
 3104   0.051058    -9.596723     -9.095618       0.052965       0.000465

---------------------- Local Time Stepping Summary ----------------------
MG level: 0 -> Min. DT: 0.000497775. Max. DT: 3.6281. CFL: 10.
MG level: 1 -> Min. DT: 0.000784485. Max. DT: 5.54634. CFL: 8.11871.
MG level: 2 -> Min. DT: 0.00104917. Max. DT: 7.41369. CFL: 6.5465.
-------------------------------------------------------------------------

----------------------- Residual Evolution Summary ----------------------
log10[Maximum residual]: -8.43268.
Maximum residual point 1072, located at (0.515871, 0.13598).
-------------------------------------------------------------------------

 Iter    Time(s)     Res[Rho]     Res[RhoE]      CL(Total)      CD(Total)
 3105   0.051056    -9.616704     -9.115450       0.052965       0.000465
 3106   0.051103    -9.636533     -9.135022       0.052965       0.000465
 3107   0.051135    -9.656213     -9.154359       0.052965       0.000465
 3108   0.051159    -9.675802     -9.173564       0.052965       0.000465
 3109   0.051167    -9.695338     -9.192694       0.052965       0.000465
 3110   0.051180    -9.714883     -9.211841       0.052965       0.000465
 3111   0.051204    -9.734518     -9.231116       0.052965       0.000465
 3112   0.051258    -9.754291     -9.250579       0.052965       0.000465
 3113   0.051275    -9.774250     -9.270286       0.052965       0.000465
 3114   0.051283    -9.794420     -9.290263       0.052965       0.000465
 3115   0.051290    -9.814813     -9.310516       0.052965       0.000465
 3116   0.051287    -9.835429     -9.331040       0.052965       0.000465
 3117   0.051276    -9.856266     -9.351825       0.052965       0.000465
 3118   0.051265    -9.877325     -9.372876       0.052965       0.000465
 3119   0.051255    -9.898625     -9.394217       0.052965       0.000465
 3120   0.051257    -9.920202     -9.415902       0.052965       0.000465
 3121   0.051248    -9.942114     -9.438009       0.052965       0.000465
 3122   0.051238    -9.964432     -9.460637       0.052965       0.000465
 3123   0.051231    -9.987233     -9.483883       0.052965       0.000465
 3124   0.051223   -10.010581     -9.507824       0.052965       0.000465

-------------------------- File Output Summary --------------------------
Writing comma-separated values (CSV) surface files.
Merging connectivities in the Master node.
Merging coordinates in the Master node.
Merging solution in the Master node.
Writing SU2 native restart file.
Writing Paraview ASCII volume solution file.
Writing Paraview ASCII surface solution file.
Writing the forces breakdown file.
-------------------------------------------------------------------------

History file, closed.

------------------------- Solver Postprocessing -------------------------
Deleted CNumerics container.
Deleted CIntegration container.
Deleted CSolver container.
Deleted CIteration container.
Deleted CInterpolator container.
Deleted CTransfer container.
Deleted CGeometry container.
Deleted CFreeFormDefBox class.
Deleted CSurfaceMovement class.
Deleted CVolumetricMovement class.
Deleted CConfig container.
Deleted COutput class.
-------------------------------------------------------------------------

Completed in 15.461441 seconds on 1 core.

------------------------- Exit Success (SU2_CFD) ------------------------

