
-------------------------------------------------------------------------
|    ___ _   _ ___                                                      |
|   / __| | | |_  )   Release 5.0.0  "Raven"                            |
|   \__ \ |_| |/ /                                                      |
|   |___/\___//___|   Suite (Computational Fluid Dynamics Code)         |
|                                                                       |
-------------------------------------------------------------------------
| SU2 Original Developers: Dr. Francisco D. Palacios.                   |
|                          Dr. Thomas D. Economon.                      |
-------------------------------------------------------------------------
| SU2 Developers:                                                       |
| - Prof. Juan J. Alonso's group at Stanford University.                |
| - Prof. Piero Colonna's group at Delft University of Technology.      |
| - Prof. Nicolas R. Gauger's group at Kaiserslautern U. of Technology. |
| - Prof. Alberto Guardone's group at Polytechnic University of Milan.  |
| - Prof. Rafael Palacios' group at Imperial College London.            |
| - Prof. Edwin van der Weide's group at the University of Twente.      |
| - Prof. Vincent Terrapon's group at the University of Liege.          |
-------------------------------------------------------------------------
| Copyright (C) 2012-2017 SU2, the open-source CFD code.                |
|                                                                       |
| SU2 is free software; you can redistribute it and/or                  |
| modify it under the terms of the GNU Lesser General Public            |
| License as published by the Free Software Foundation; either          |
| version 2.1 of the License, or (at your option) any later version.    |
|                                                                       |
| SU2 is distributed in the hope that it will be useful,                |
| but WITHOUT ANY WARRANTY; without even the implied warranty of        |
| MERCHANTABILITY or FITNESS FOR A PARTICULAR PURPOSE. See the GNU      |
| Lesser General Public License for more details.                       |
|                                                                       |
| You should have received a copy of the GNU Lesser General Public      |
| License along with SU2. If not, see <http://www.gnu.org/licenses/>.   |
-------------------------------------------------------------------------

------------------------ Physical Case Definition -----------------------
Compressible Euler equations.
Mach number: 0.8.
Angle of attack (AoA): 1.25 deg, and angle of sideslip (AoS): 0 deg.
Read flow solution from: solution_flow.dat.
Non-Dimensional simulation (P=1.0, Rho=1.0, T=1.0 at the farfield).
The reference length/area (force coefficient) is 1.
The reference length (moment computation) is 1.
Reference origin (moment computation) is (0.25, 0, 0).
Surface(s) where the force coefficients are evaluated: airfoil.
Surface(s) plotted in the output file: airfoil.
Surface(s) affected by the design variables: airfoil.
Input mesh file name: mesh_NACA0012_inv_deform.su2

---------------------- Space Numerical Integration ----------------------
Jameson-Schmidt-Turkel scheme for the flow inviscid terms.
JST viscous coefficients (1st, 2nd & 4th): 0.15, 0.5, 0.02.
The method includes a grid stretching correction (p = 0.3).
Second order integration.
Gradient computation using Green-Gauss theorem.

---------------------- Time Numerical Integration -----------------------
Local time stepping (steady state simulation).
Euler implicit method for the flow equations.
V Multigrid Cycle, with 2 multigrid levels.
Damping factor for the residual restriction: 1.
Damping factor for the correction prolongation: 1.
No CFL adaptation.
Multigrid Level:                       0     1     2
Courant-Friedrichs-Lewy number:       10
MG PreSmooth coefficients:             1     2     3
MG PostSmooth coefficients:            0     0     0
MG CorrecSmooth coefficients:          0     0     0

------------------------- Convergence Criteria --------------------------
Maximum number of iterations: 1000.
Reduce the density residual 6 orders of magnitude.
The minimum bound for the density residual is 10^(-13).
Start convergence criteria at iteration 10.

-------------------------- Output Information ---------------------------
Writing a flow solution every 250 iterations.
Writing the convergence history every 1 iterations.
The output file format is Tecplot ASCII (.dat).
Convergence history file name: history_direct.
Forces breakdown file name: forces_breakdown.dat.
Surface flow coefficients file name: surface_flow.
Flow variables file name: flow.
Restart flow file name: restart_flow.dat.

------------------- Config File Boundary Information --------------------
Euler wall boundary marker(s): airfoil.
Far-field boundary marker(s): farfield.

---------------------- Read Grid File Information -----------------------
Two dimensional problem.
5233 points before parallel partitioning.
Performing linear partitioning of the grid nodes.
10216 interior elements before parallel partitioning.
Calling the partitioning functions.
Building the graph adjacency structure.
Distributing elements across all ranks.
2 surface markers.
200 boundary elements in index 0 (Marker = airfoil).
50 boundary elements in index 1 (Marker = farfield).
Calling ParMETIS...
Finished partitioning using ParMETIS (547 edge cuts).
Communicating partition data and creating halo layers.
10763 interior elements including halo cells. 
10763 triangles.
5796 vertices including ghost points. 
Establishing MPI communication patterns.

------------------------- Geometry Preprocessing ------------------------
Setting point connectivity.
Renumbering points (Reverse Cuthill McKee Ordering).
Recomputing point connectivity.
Setting element connectivity.
Checking the numerical grid orientation.
Identifying edges and vertices.
Computing centers of gravity.
Setting the control volume structure.
Area of the computational grid: 1.3e+03.
Searching for the closest normal neighbors to the surfaces.
Compute the surface curvature.
Max K: 7.84e+03. Mean K: 35.7. Standard deviation K: 494.
Checking for periodicity.
Setting the multigrid structure.
MG level: 0 -> CVs: 5796. Agglomeration rate 1/1.00. CFL 10.
MG level: 1 -> CVs: 1800. Agglomeration rate 1/3.22. CFL 8.36.
MG level: 2 -> CVs: 626. Agglomeration rate 1/2.88. CFL 7.39.
Computing wall distances.
Wetted area = 2.03 m.
Area projection in the x-plane = 0.107 m, y-plane = 1 m.

------------------------- Driver information --------------------------
A Fluid driver has been instantiated.

------------------------ Iteration Preprocessing ------------------------
Zone 1: Euler/Navier-Stokes/RANS flow iteration.

------------------------- Solver Preprocessing --------------------------
Inviscid flow: Computing density based on free-stream
temperature and pressure using the ideal gas law.
Force coefficients computed using free-stream values.
-- Input conditions:
Fluid Model: STANDARD_AIR 
Specific gas constant: 287.058 N.m/kg.K.
Specific gas constant (non-dim): 1
Specific Heat Ratio: 1.4
Free-stream static pressure: 101325 Pa.
Free-stream total pressure: 154454 Pa.
Free-stream temperature: 288.15 K.
Free-stream density: 1.22498 kg/m^3.
Free-stream velocity: (272.173, 5.93883) m/s. Magnitude: 272.238 m/s (529.186 KTS).
Free-stream total energy per unit mass: 243846 m^2/s^2.
-- Reference values:
Reference specific gas constant: 287.058 N.m/kg.K.
Reference pressure: 101325 Pa.
Reference temperature: 288.15 K.
Reference density: 1.22498 kg/m^3.
Reference velocity: 287.603 m/s.
Reference energy per unit mass: 82715.8 m^2/s^2.
-- Resulting non-dimensional state:
Mach number (non-dim): 0.8
Specific gas constant (non-dim): 1
Free-stream temperature (non-dim): 1
Free-stream pressure (non-dim): 1
Free-stream density (non-dim): 1
Free-stream velocity (non-dim): (0.946348, 0.0206494). Magnitude: 0.946573
Free-stream total energy per unit mass (non-dim): 2.948

Initialize Jacobian structure (Euler). MG level: 0.
Initialize Jacobian structure (Euler). MG level: 1.
Initialize Jacobian structure (Euler). MG level: 2.

----------------- Integration and Numerics Preprocessing ----------------
Integration Preprocessing.
Numerics Preprocessing.

------------------------------ Begin Solver -----------------------------

---------------------- Local Time Stepping Summary ----------------------
MG level: 0 -> Min. DT: 0.000497808. Max. DT: 3.6287. CFL: 10.
MG level: 1 -> Min. DT: 0.000799998. Max. DT: 5.71115. CFL: 8.35917.
MG level: 2 -> Min. DT: 0.00155937. Max. DT: 8.31073. CFL: 7.39444.
-------------------------------------------------------------------------

----------------------- Residual Evolution Summary ----------------------
log10[Maximum residual]: -6.19241.
Maximum residual point 105, located at (0.00752, 0.0115525).
-------------------------------------------------------------------------

 Iter    Time(s)     Res[Rho]     Res[RhoE]      CL(Total)      CD(Total)
 4419   0.024386    -7.294903     -6.698523       0.066570       0.000427
 4420   0.025043    -7.352668     -6.749389       0.066578       0.000435
 4421   0.025496    -7.355403     -6.755464       0.066583       0.000439
 4422   0.025256    -7.323448     -6.719872       0.066590       0.000441
 4423   0.024549    -7.280998     -6.675583       0.066597       0.000443
 4424   0.023070    -7.247583     -6.644172       0.066605       0.000445
 4425   0.021860    -7.218612     -6.616346       0.066613       0.000446
 4426   0.021486    -7.191667     -6.588549       0.066621       0.000447
 4427   0.020974    -7.173636     -6.569960       0.066628       0.000448
 4428   0.020554    -7.163016     -6.559071       0.066634       0.000448
 4429   0.020030    -7.158660     -6.554592       0.066640       0.000449
 4430   0.019584    -7.159110     -6.554969       0.066644       0.000449
 4431   0.019191    -7.162658     -6.558476       0.066649       0.000450
 4432   0.018998    -7.167922     -6.563775       0.066653       0.000450
 4433   0.019101    -7.174093     -6.570068       0.066657       0.000450
 4434   0.019077    -7.180667     -6.576753       0.066660       0.000450
 4435   0.018920    -7.187132     -6.583127       0.066663       0.000450
 4436   0.018861    -7.192947     -6.588422       0.066666       0.000450
 4437   0.018707    -7.197727     -6.592108       0.066669       0.000450
 4438   0.018591    -7.201441     -6.594174       0.066671       0.000450
 4439   0.018430    -7.204466     -6.595158       0.066673       0.000450
 4440   0.018254    -7.207437     -6.595910       0.066675       0.000450
 4441   0.018110    -7.211112     -6.597390       0.066677       0.000450
 4442   0.018213    -7.216357     -6.600615       0.066679       0.000450
 4443   0.018204    -7.224221     -6.606752       0.066680       0.000450
 4444   0.018113    -7.236066     -6.617280       0.066681       0.000450
 4445   0.018003    -7.253710     -6.634158       0.066683       0.000451
 4446   0.017885    -7.279619     -6.660044       0.066684       0.000451
 4447   0.017775    -7.317362     -6.698803       0.066685       0.000451
 4448   0.017712    -7.372000     -6.755987       0.066686       0.000451
 4449   0.017621    -7.444967     -6.833457       0.066688       0.000451
 4450   0.017622    -7.509446     -6.902386       0.066689       0.000452
 4451   0.017568    -7.543215     -6.938558       0.066691       0.000452
 4452   0.017618    -7.564563     -6.962250       0.066693       0.000452
 4453   0.017561    -7.583673     -6.984530       0.066695       0.000452
 4454   0.017522    -7.599150     -7.003118       0.066697       0.000452
 4455   0.017457    -7.606860     -7.012843       0.066699       0.000452
 4456   0.017417    -7.609632     -7.016970       0.066701       0.000452
 4457   0.017419    -7.611678     -7.020401       0.066703       0.000452
 4458   0.017358    -7.613670     -7.023875       0.066705       0.000452

---------------------- Local Time Stepping Summary ----------------------
MG level: 0 -> Min. DT: 0.000497807. Max. DT: 3.62869. CFL: 10.
MG level: 1 -> Min. DT: 0.000799996. Max. DT: 5.71115. CFL: 8.35917.
MG level: 2 -> Min. DT: 0.00155936. Max. DT: 8.31073. CFL: 7.39444.
-------------------------------------------------------------------------

----------------------- Residual Evolution Summary ----------------------
log10[Maximum residual]: -6.68229.
Maximum residual point 1582, located at (0.537281, 0.21775).
-------------------------------------------------------------------------

 Iter    Time(s)     Res[Rho]     Res[RhoE]      CL(Total)      CD(Total)
 4459   0.017303    -7.614496     -7.026058       0.066707       0.000452
 4460   0.017249    -7.614070     -7.026784       0.066708       0.000452
 4461   0.017285    -7.613008     -7.026663       0.066710       0.000452
 4462   0.017353    -7.611609     -7.025958       0.066711       0.000452
 4463   0.017317    -7.610067     -7.024851       0.066712       0.000452
 4464   0.017266    -7.608780     -7.023784       0.066714       0.000452
 4465   0.017231    -7.608134     -7.023198       0.066715       0.000452
 4466   0.017190    -7.608378     -7.023386       0.066716       0.000452
 4467   0.017153    -7.609743     -7.024630       0.066716       0.000452
 4468   0.017111    -7.612460     -7.027210       0.066717       0.000452
 4469   0.017055    -7.616698     -7.031350       0.066718       0.000452
 4470   0.017025    -7.622589     -7.037234       0.066719       0.000452
 4471   0.016987    -7.630267     -7.045053       0.066719       0.000452
 4472   0.017034    -7.639851     -7.054988       0.066720       0.000452
 4473   0.017020    -7.651429     -7.067192       0.066721       0.000452
 4474   0.017006    -7.665064     -7.081789       0.066721       0.000452
 4475   0.016963    -7.680805     -7.098895       0.066722       0.000452
 4476   0.016927    -7.698703     -7.118627       0.066722       0.000452
 4477   0.016895    -7.718824     -7.141124       0.066723       0.000452
 4478   0.017023    -7.741280     -7.166579       0.066723       0.000452
 4479   0.017145    -7.766242     -7.195257       0.066724       0.000452
 4480   0.017296    -7.793930     -7.227481       0.066724       0.000452
 4481   0.017338    -7.824585     -7.263599       0.066724       0.000452
 4482   0.017328    -7.858395     -7.303877       0.066725       0.000452
 4483   0.017370    -7.895279     -7.348197       0.066725       0.000452
 4484   0.017349    -7.934249     -7.395152       0.066726       0.000452
 4485   0.017320    -7.971605     -7.439549       0.066726       0.000452
 4486   0.017279    -7.997839     -7.468405       0.066726       0.000452
 4487   0.017247    -8.001134     -7.467175       0.066727       0.000452
 4488   0.017230    -7.986496     -7.445153       0.066727       0.000452
 4489   0.017197    -7.969481     -7.422733       0.066727       0.000452
 4490   0.017173    -7.958147     -7.408522       0.066727       0.000452
 4491   0.017147    -7.953559     -7.402466       0.066727       0.000452
 4492   0.017139    -7.953044     -7.401008       0.066727       0.000452
 4493   0.017119    -7.957090     -7.405123       0.066727       0.000452
 4494   0.017091    -7.966279     -7.415697       0.066727       0.000452
 4495   0.017109    -7.977525     -7.428750       0.066727       0.000452
 4496   0.017108    -7.989216     -7.442228       0.066727       0.000452
 4497   0.017111    -8.000087     -7.454551       0.066727       0.000452
 4498   0.017102    -8.008732     -7.463911       0.066727       0.000452

---------------------- Local Time Stepping Summary ----------------------
MG level: 0 -> Min. DT: 0.000497808. Max. DT: 3.62869. CFL: 10.
MG level: 1 -> Min. DT: 0.000799997. Max. DT: 5.71115. CFL: 8.35917.
MG level: 2 -> Min. DT: 0.00155937. Max. DT: 8.31073. CFL: 7.39444.
-------------------------------------------------------------------------

----------------------- Residual Evolution Summary ----------------------
log10[Maximum residual]: -6.85788.
Maximum residual point 1601, located at (0.506506, 0.218591).
-------------------------------------------------------------------------

 Iter    Time(s)     Res[Rho]     Res[RhoE]      CL(Total)      CD(Total)
 4499   0.017083    -8.015819     -7.471273       0.066727       0.000452
 4500   0.017055    -8.022380     -7.478026       0.066727       0.000452
 4501   0.017027    -8.029033     -7.484902       0.066727       0.000452
 4502   0.016999    -8.036023     -7.492134       0.066727       0.000452
 4503   0.016977    -8.043426     -7.499784       0.066727       0.000452
 4504   0.016967    -8.051337     -7.507996       0.066727       0.000452
 4505   0.016941    -8.059891     -7.516975       0.066727       0.000452
 4506   0.016924    -8.069253     -7.526948       0.066727       0.000452
 4507   0.016901    -8.079616     -7.538161       0.066727       0.000452
 4508   0.016886    -8.091202     -7.550877       0.066727       0.000452
 4509   0.016871    -8.104220     -7.565337       0.066727       0.000452
 4510   0.016874    -8.118820     -7.581694       0.066727       0.000452
 4511   0.016886    -8.135064     -7.599985       0.066727       0.000452
 4512   0.016869    -8.152934     -7.620150       0.066727       0.000452
 4513   0.016854    -8.172349     -7.642058       0.066727       0.000452
 4514   0.016832    -8.193155     -7.665499       0.066727       0.000452
 4515   0.016815    -8.215071     -7.690116       0.066727       0.000452
 4516   0.016792    -8.237550     -7.715223       0.066727       0.000452
 4517   0.016783    -8.259509     -7.739445       0.066727       0.000452
 4518   0.016768    -8.278924     -7.760023       0.066727       0.000452
 4519   0.016753    -8.293166     -7.773425       0.066727       0.000452
 4520   0.016838    -8.300413     -7.778108       0.066727       0.000452
 4521   0.016837    -8.300325     -7.774242       0.066727       0.000452
 4522   0.016825    -8.297075     -7.767550       0.066727       0.000452
 4523   0.016810    -8.294557     -7.762841       0.066727       0.000452
 4524   0.016795    -8.294561     -7.761877       0.066727       0.000452
 4525   0.016781    -8.297393     -7.764606       0.066727       0.000452
 4526   0.016765    -8.303464     -7.771383       0.066727       0.000452
 4527   0.016759    -8.313025     -7.782454       0.066727       0.000452
 4528   0.016744    -8.325892     -7.797480       0.066727       0.000452
 4529   0.016731    -8.341574     -7.815738       0.066727       0.000452
 4530   0.016717    -8.359670     -7.836668       0.066727       0.000452
 4531   0.016698    -8.380199     -7.860286       0.066727       0.000452
 4532   0.016681    -8.403384     -7.886843       0.066727       0.000452
 4533   0.016675    -8.428810     -7.915699       0.066727       0.000452
 4534   0.016653    -8.454836     -7.944566       0.066727       0.000452
 4535   0.016638    -8.479486     -7.970862       0.066727       0.000452
 4536   0.016622    -8.501631     -7.993418       0.066727       0.000452
 4537   0.016607    -8.520845     -8.012040       0.066727       0.000452
 4538   0.016592    -8.537352     -8.027296       0.066727       0.000452

---------------------- Local Time Stepping Summary ----------------------
MG level: 0 -> Min. DT: 0.000497808. Max. DT: 3.62869. CFL: 10.
MG level: 1 -> Min. DT: 0.000799997. Max. DT: 5.71115. CFL: 8.35917.
MG level: 2 -> Min. DT: 0.00155937. Max. DT: 8.31073. CFL: 7.39444.
-------------------------------------------------------------------------

----------------------- Residual Evolution Summary ----------------------
log10[Maximum residual]: -7.35871.
Maximum residual point 261, located at (0.583331, 0.0575299).
-------------------------------------------------------------------------

 Iter    Time(s)     Res[Rho]     Res[RhoE]      CL(Total)      CD(Total)
 4539   0.016578    -8.553765     -8.043023       0.066727       0.000452
 4540   0.016618    -8.573236     -8.063500       0.066727       0.000452
 4541   0.016686    -8.594849     -8.086663       0.066727       0.000452
 4542   0.016743    -8.616818     -8.109470       0.066727       0.000452
 4543   0.016755    -8.639380     -8.132631       0.066727       0.000452
 4544   0.016757    -8.661674     -8.155149       0.066727       0.000452
 4545   0.016752    -8.683485     -8.176852       0.066727       0.000452
 4546   0.016740    -8.705216     -8.198504       0.066727       0.000452
 4547   0.016723    -8.727166     -8.220570       0.066727       0.000452
 4548   0.016708    -8.749097     -8.242621       0.066727       0.000452
 4549   0.016705    -8.771194     -8.264944       0.066727       0.000452
 4550   0.016696    -8.794453     -8.289000       0.066727       0.000452
 4551   0.016681    -8.815869     -8.309962       0.066727       0.000452
 4552   0.016670    -8.836423     -8.329881       0.066728       0.000452
 4553   0.016655    -8.861322     -8.356915       0.066728       0.000452
 4554   0.016668    -8.883361     -8.378729       0.066728       0.000452
 4555   0.016660    -8.907868     -8.403967       0.066728       0.000452
 4556   0.016649    -8.927163     -8.421601       0.066728       0.000452
 4557   0.016663    -8.947732     -8.441541       0.066728       0.000452
 4558   0.016675    -8.969648     -8.463778       0.066728       0.000452
 4559   0.016699    -8.988348     -8.481391       0.066728       0.000452
 4560   0.016700    -9.008285     -8.500670       0.066728       0.000452
 4561   0.016692    -9.029085     -8.521673       0.066728       0.000452
 4562   0.016707    -9.050122     -8.542665       0.066728       0.000452
 4563   0.016694    -9.070768     -8.562930       0.066728       0.000452
 4564   0.016680    -9.091885     -8.583770       0.066728       0.000452
 4565   0.016675    -9.113690     -8.605620       0.066728       0.000452
 4566   0.016662    -9.136797     -8.629233       0.066728       0.000452
 4567   0.016650    -9.161025     -8.654178       0.066728       0.000452
 4568   0.016635    -9.186151     -8.680058       0.066728       0.000452
 4569   0.016626    -9.212179     -8.706898       0.066728       0.000452
 4570   0.016616    -9.238983     -8.734558       0.066728       0.000452
 4571   0.016607    -9.266402     -8.762826       0.066728       0.000452
 4572   0.016592    -9.294471     -8.791784       0.066728       0.000452
 4573   0.016605    -9.323475     -8.821851       0.066728       0.000452
 4574   0.016604    -9.353695     -8.853375       0.066728       0.000452
 4575   0.016682    -9.385211     -8.886366       0.066728       0.000452
 4576   0.016728    -9.417980     -8.920668       0.066728       0.000452
 4577   0.016786    -9.451742     -8.955857       0.066728       0.000452
 4578   0.016840    -9.485539     -8.990524       0.066728       0.000452

---------------------- Local Time Stepping Summary ----------------------
MG level: 0 -> Min. DT: 0.000497808. Max. DT: 3.62869. CFL: 10.
MG level: 1 -> Min. DT: 0.000799997. Max. DT: 5.71115. CFL: 8.35917.
MG level: 2 -> Min. DT: 0.00155937. Max. DT: 8.31073. CFL: 7.39444.
-------------------------------------------------------------------------

----------------------- Residual Evolution Summary ----------------------
log10[Maximum residual]: -8.25109.
Maximum residual point 261, located at (0.583331, 0.0575299).
-------------------------------------------------------------------------

 Iter    Time(s)     Res[Rho]     Res[RhoE]      CL(Total)      CD(Total)
 4579   0.016888    -9.517727     -9.022390       0.066728       0.000452
 4580   0.016880    -9.546191     -9.048847       0.066728       0.000452
 4581   0.016871    -9.570648     -9.070313       0.066728       0.000452
 4582   0.016863    -9.595943     -9.094018       0.066728       0.000452
 4583   0.016867    -9.624369     -9.122679       0.066728       0.000452
 4584   0.016859    -9.635575     -9.126891       0.066728       0.000452
 4585   0.016856    -9.655998     -9.145564       0.066728       0.000452
 4586   0.016846    -9.701072     -9.203802       0.066728       0.000452
 4587   0.016840    -9.737039     -9.241126       0.066728       0.000452
 4588   0.016830    -9.768284     -9.270343       0.066728       0.000452
 4589   0.016817    -9.803675     -9.306785       0.066728       0.000452
 4590   0.016819    -9.833561     -9.334885       0.066728       0.000452
 4591   0.016819    -9.863743     -9.363901       0.066728       0.000452
 4592   0.016813    -9.894766     -9.394887       0.066728       0.000452
 4593   0.016807    -9.926165     -9.426411       0.066728       0.000452
 4594   0.016801    -9.954976     -9.453812       0.066728       0.000452
 4595   0.016826    -9.971967     -9.464793       0.066728       0.000452
 4596   0.016953    -9.986198     -9.473884       0.066728       0.000452
 4597   0.017276   -10.016320     -9.507829       0.066728       0.000452
 4598   0.017403   -10.043698     -9.537028       0.066728       0.000452
 4599   0.017655   -10.065088     -9.556512       0.066728       0.000452
 4600   0.017740   -10.093155     -9.585861       0.066728       0.000452
 4601   0.017861   -10.128576     -9.625918       0.066728       0.000452
 4602   0.017927   -10.157258     -9.654277       0.066728       0.000452
 4603   0.017974   -10.182051     -9.677221       0.066728       0.000452
 4604   0.018051   -10.212611     -9.709709       0.066728       0.000452
 4605   0.018181   -10.237556     -9.733710       0.066728       0.000452
 4606   0.018273   -10.252941     -9.744462       0.066728       0.000452
 4607   0.018364   -10.270778     -9.760664       0.066728       0.000452
 4608   0.018494   -10.290398     -9.780276       0.066728       0.000452
 4609   0.018593   -10.305526     -9.793336       0.066728       0.000452
 4610   0.018673   -10.322267     -9.809091       0.066728       0.000452
 4611   0.018714   -10.342222     -9.829631       0.066728       0.000452
 4612   0.018771   -10.359381     -9.845807       0.066728       0.000452
 4613   0.018811   -10.375733     -9.860995       0.066728       0.000452
 4614   0.018853   -10.395904     -9.881858       0.066728       0.000452
 4615   0.018890   -10.413282     -9.898389       0.066728       0.000452
 4616   0.018979   -10.424269     -9.906197       0.066728       0.000452
 4617   0.019015   -10.437082     -9.917572       0.066728       0.000452
 4618   0.019041   -10.451784     -9.931887       0.066728       0.000452

---------------------- Local Time Stepping Summary ----------------------
MG level: 0 -> Min. DT: 0.000497808. Max. DT: 3.62869. CFL: 10.
MG level: 1 -> Min. DT: 0.000799997. Max. DT: 5.71115. CFL: 8.35917.
MG level: 2 -> Min. DT: 0.00155937. Max. DT: 8.31073. CFL: 7.39444.
-------------------------------------------------------------------------

----------------------- Residual Evolution Summary ----------------------
log10[Maximum residual]: -9.25433.
Maximum residual point 436, located at (0.36366, 0.0609853).
-------------------------------------------------------------------------

 Iter    Time(s)     Res[Rho]     Res[RhoE]      CL(Total)      CD(Total)
 4619   0.019069   -10.458614     -9.935279       0.066728       0.000452
 4620   0.019128   -10.461076     -9.933736       0.066728       0.000452
 4621   0.019166   -10.469631     -9.941467       0.066728       0.000452
 4622   0.019189   -10.480845     -9.952748       0.066728       0.000452
 4623   0.019211   -10.486103     -9.955637       0.066728       0.000452
 4624   0.019236   -10.489658     -9.956677       0.066728       0.000452
 4625   0.019262   -10.499492     -9.966544       0.066728       0.000452
 4626   0.019297   -10.512984     -9.981031       0.066728       0.000452
 4627   0.019334   -10.522269     -9.989359       0.066728       0.000452
 4628   0.019370   -10.528697     -9.994019       0.066728       0.000452
 4629   0.019383   -10.539864    -10.005309       0.066728       0.000452
 4630   0.019382   -10.555353    -10.022213       0.066728       0.000452
 4631   0.019371   -10.567364    -10.033993       0.066728       0.000452
 4632   0.019356   -10.575599    -10.040794       0.066728       0.000452
 4633   0.019338   -10.588142    -10.053654       0.066728       0.000452
 4634   0.019320   -10.605244    -10.072536       0.066728       0.000452
 4635   0.019302   -10.617805    -10.084908       0.066728       0.000452
 4636   0.019289   -10.626258    -10.091910       0.066728       0.000452
 4637   0.019269   -10.640669    -10.107250       0.066728       0.000452
 4638   0.019254   -10.658853    -10.127541       0.066728       0.000452
 4639   0.019244   -10.669370    -10.137108       0.066728       0.000452
 4640   0.019236   -10.678629    -10.145251       0.066728       0.000452
 4641   0.019224   -10.696614    -10.165465       0.066728       0.000452
 4642   0.019211   -10.713153    -10.183356       0.066728       0.000452
 4643   0.019217   -10.719660    -10.187572       0.066728       0.000452
 4644   0.019220   -10.732760    -10.201096       0.066728       0.000452
 4645   0.019209   -10.754625    -10.226586       0.066728       0.000452
 4646   0.019204   -10.763424    -10.233748       0.066728       0.000452
 4647   0.019194   -10.769640    -10.237784       0.066728       0.000452
 4648   0.019188   -10.791814    -10.263882       0.066728       0.000452
 4649   0.019185   -10.808996    -10.282526       0.066728       0.000452
 4650   0.019178   -10.810230    -10.279521       0.066728       0.000452
 4651   0.019166   -10.826128    -10.296876       0.066728       0.000452
 4652   0.019164   -10.852874    -10.329093       0.066728       0.000452
 4653   0.019155   -10.854803    -10.326643       0.066728       0.000452
 4654   0.019141   -10.860788    -10.330290       0.066728       0.000452
 4655   0.019128   -10.890134    -10.366434       0.066728       0.000452
 4656   0.019118   -10.903468    -10.379311       0.066728       0.000452
 4657   0.019110   -10.899781    -10.369608       0.066728       0.000452
 4658   0.019095   -10.920870    -10.394182       0.066728       0.000452

---------------------- Local Time Stepping Summary ----------------------
MG level: 0 -> Min. DT: 0.000497808. Max. DT: 3.62869. CFL: 10.
MG level: 1 -> Min. DT: 0.000799997. Max. DT: 5.71115. CFL: 8.35917.
MG level: 2 -> Min. DT: 0.00155937. Max. DT: 8.31073. CFL: 7.39444.
-------------------------------------------------------------------------

----------------------- Residual Evolution Summary ----------------------
log10[Maximum residual]: -9.83802.
Maximum residual point 435, located at (0.33346, 0.0601572).
-------------------------------------------------------------------------

 Iter    Time(s)     Res[Rho]     Res[RhoE]      CL(Total)      CD(Total)
 4659   0.019093   -10.950126    -10.429775       0.066728       0.000452
 4660   0.019117   -10.946086    -10.418928       0.066728       0.000452
 4661   0.019107   -10.949660    -10.419406       0.066728       0.000452
 4662   0.019091   -10.981144    -10.458975       0.066728       0.000452
 4663   0.019075   -10.997951    -10.476508       0.066728       0.000452
 4664   0.019059   -10.987434    -10.457689       0.066728       0.000452
 4665   0.019042   -11.001329    -10.472617       0.066728       0.000452
 4666   0.019030   -11.030679    -10.509279       0.066728       0.000452
 4667   0.019019   -11.033611    -10.508293       0.066728       0.000452
 4668   0.019001   -11.026265    -10.494615       0.066728       0.000452
 4669   0.018986   -11.040853    -10.511269       0.066728       0.000452

-------------------------- File Output Summary --------------------------
Writing comma-separated values (CSV) surface files.
Merging coordinates in the Master node.
Merging solution in the Master node.
Writing SU2 native restart file.
Writing the forces breakdown file.
-------------------------------------------------------------------------

 4670   0.019168   -11.055286    -10.528056       0.066727       0.000452
 4671   0.019151   -11.058899    -10.529331       0.066727       0.000452
 4672   0.019134   -11.057535    -10.524508       0.066727       0.000452
 4673   0.019118   -11.066864    -10.534429       0.066727       0.000452
 4674   0.019109   -11.079632    -10.548942       0.066727       0.000452
 4675   0.019101   -11.089072    -10.558294       0.066727       0.000452
 4676   0.019086   -11.091409    -10.558281       0.066727       0.000452
 4677   0.019070   -11.105113    -10.573468       0.066727       0.000452
 4678   0.019054   -11.122715    -10.593604       0.066727       0.000452
 4679   0.019060   -11.133283    -10.603715       0.066727       0.000452
 4680   0.019048   -11.136701    -10.604591       0.066727       0.000452
 4681   0.019037   -11.161800    -10.634537       0.066727       0.000452
 4682   0.019069   -11.181118    -10.655833       0.066727       0.000452
 4683   0.019096   -11.178826    -10.648441       0.066727       0.000452
 4684   0.019119   -11.200694    -10.673367       0.066727       0.000452
 4685   0.019115   -11.231056    -10.711414       0.066727       0.000452
 4686   0.019105   -11.217009    -10.688812       0.066727       0.000452
 4687   0.019090   -11.259726    -10.741908       0.066727       0.000452
 4688   0.019074   -11.282444    -10.767264       0.066727       0.000452
 4689   0.019060   -11.260248    -10.733668       0.066727       0.000452
 4690   0.019043   -11.315876    -10.805139       0.066727       0.000452
 4691   0.019032   -11.337087    -10.827149       0.066727       0.000452
 4692   0.019021   -11.307508    -10.782778       0.066727       0.000452
 4693   0.019005   -11.359476    -10.849455       0.066727       0.000452
 4694   0.018995   -11.378205    -10.868023       0.066727       0.000452
 4695   0.018980   -11.367026    -10.845866       0.066727       0.000452
 4696   0.018969   -11.404137    -10.891794       0.066727       0.000452
 4697   0.018960   -11.412447    -10.896131       0.066727       0.000452
 4698   0.018947   -11.413852    -10.891393       0.066727       0.000452

---------------------- Local Time Stepping Summary ----------------------
MG level: 0 -> Min. DT: 0.000497808. Max. DT: 3.62869. CFL: 10.
MG level: 1 -> Min. DT: 0.000799997. Max. DT: 5.71115. CFL: 8.35917.
MG level: 2 -> Min. DT: 0.00155937. Max. DT: 8.31073. CFL: 7.39444.
-------------------------------------------------------------------------

----------------------- Residual Evolution Summary ----------------------
log10[Maximum residual]: -10.3075.
Maximum residual point 436, located at (0.36366, 0.0609853).
-------------------------------------------------------------------------

 Iter    Time(s)     Res[Rho]     Res[RhoE]      CL(Total)      CD(Total)
 4699   0.018947   -11.440659    -10.923322       0.066727       0.000452
 4700   0.018943   -11.452478    -10.933310       0.066727       0.000452
 4701   0.018932   -11.459887    -10.937181       0.066727       0.000452
 4702   0.018922   -11.483002    -10.964341       0.066727       0.000452
 4703   0.018908   -11.490500    -10.969183       0.066727       0.000452
 4704   0.018896   -11.500284    -10.976874       0.066727       0.000452
 4705   0.018882   -11.525580    -11.009004       0.066727       0.000452
 4706   0.018867   -11.529150    -11.007405       0.066727       0.000452
 4707   0.018868   -11.554486    -11.037072       0.066727       0.000452
 4708   0.018857   -11.565077    -11.045576       0.066727       0.000452
 4709   0.018844   -11.572223    -11.049115       0.066727       0.000452
 4710   0.018834   -11.589787    -11.070599       0.066727       0.000452
 4711   0.018826   -11.598015    -11.076316       0.066727       0.000452
 4712   0.018812   -11.617691    -11.098692       0.066727       0.000452
 4713   0.018802   -11.621432    -11.098334       0.066727       0.000452
 4714   0.018792   -11.650821    -11.133293       0.066727       0.000452
 4715   0.018780   -11.672910    -11.157314       0.066727       0.000452
 4716   0.018772   -11.648863    -11.119154       0.066727       0.000452
 4717   0.018766   -11.670048    -11.146920       0.066727       0.000452
 4718   0.018754   -11.691912    -11.173154       0.066727       0.000452
 4719   0.018741   -11.712123    -11.193271       0.066727       0.000452
 4720   0.018730   -11.727844    -11.208209       0.066727       0.000452
 4721   0.018717   -11.755195    -11.239041       0.066727       0.000452
 4722   0.018704   -11.764947    -11.245777       0.066727       0.000452
 4723   0.018692   -11.794033    -11.280019       0.066727       0.000452
 4724   0.018678   -11.805284    -11.287846       0.066727       0.000452
 4725   0.018667   -11.816760    -11.297630       0.066727       0.000452
 4726   0.018654   -11.834356    -11.316358       0.066727       0.000452
 4727   0.018642   -11.855821    -11.340423       0.066727       0.000452
 4728   0.018632   -11.853711    -11.331634       0.066727       0.000452
 4729   0.018618   -11.882012    -11.367658       0.066727       0.000452
 4730   0.018606   -11.905422    -11.393276       0.066727       0.000452
 4731   0.018595   -11.913689    -11.396476       0.066727       0.000452
 4732   0.018584   -11.897681    -11.370119       0.066727       0.000452
 4733   0.018572   -11.934853    -11.422765       0.066727       0.000452
 4734   0.018561   -11.936070    -11.418006       0.066727       0.000452
 4735   0.018549   -11.966882    -11.454941       0.066727       0.000452
 4736   0.018536   -11.986625    -11.474556       0.066727       0.000452
 4737   0.018526   -12.015599    -11.507722       0.066727       0.000452
 4738   0.018513   -12.017703    -11.501447       0.066727       0.000452

---------------------- Local Time Stepping Summary ----------------------
MG level: 0 -> Min. DT: 0.000497808. Max. DT: 3.62869. CFL: 10.
MG level: 1 -> Min. DT: 0.000799997. Max. DT: 5.71115. CFL: 8.35917.
MG level: 2 -> Min. DT: 0.00155937. Max. DT: 8.31073. CFL: 7.39444.
-------------------------------------------------------------------------

----------------------- Residual Evolution Summary ----------------------
log10[Maximum residual]: -10.9037.
Maximum residual point 378, located at (0.394397, 0.0615105).
-------------------------------------------------------------------------

 Iter    Time(s)     Res[Rho]     Res[RhoE]      CL(Total)      CD(Total)
 4739   0.018500   -12.037390    -11.524163       0.066727       0.000452
 4740   0.018491   -12.048477    -11.533849       0.066727       0.000452
 4741   0.018480   -12.035826    -11.511209       0.066727       0.000452
 4742   0.018471   -12.055340    -11.535978       0.066727       0.000452
 4743   0.018460   -12.074162    -11.558718       0.066727       0.000452
 4744   0.018447   -12.060026    -11.533778       0.066727       0.000452
 4745   0.018468   -12.092954    -11.576641       0.066727       0.000452
 4746   0.018487   -12.118616    -11.606846       0.066727       0.000452
 4747   0.018505   -12.112297    -11.590133       0.066727       0.000452
 4748   0.018498   -12.119921    -11.596231       0.066727       0.000452
 4749   0.018492   -12.157644    -11.648385       0.066727       0.000452
 4750   0.018480   -12.162154    -11.646167       0.066727       0.000452
 4751   0.018483   -12.189167    -11.676592       0.066727       0.000452
 4752   0.018472   -12.212840    -11.702470       0.066727       0.000452
 4753   0.018466   -12.187261    -11.661099       0.066727       0.000452
 4754   0.018454   -12.216787    -11.699374       0.066727       0.000452
 4755   0.018445   -12.255014    -11.750477       0.066727       0.000452
 4756   0.018436   -12.256871    -11.742256       0.066727       0.000452
 4757   0.018427   -12.279427    -11.765850       0.066727       0.000452
 4758   0.018418   -12.315420    -11.811067       0.066727       0.000452
 4759   0.018409   -12.303034    -11.784690       0.066727       0.000452
 4760   0.018399   -12.320512    -11.802814       0.066727       0.000452
 4761   0.018391   -12.353980    -11.845775       0.066727       0.000452
 4762   0.018390   -12.345590    -11.825843       0.066727       0.000452
 4763   0.018392   -12.358314    -11.837596       0.066727       0.000452
 4764   0.018386   -12.398699    -11.892135       0.066727       0.000452
 4765   0.018383   -12.403545    -11.889089       0.066727       0.000452
 4766   0.018376   -12.425636    -11.911503       0.066727       0.000452
 4767   0.018368   -12.447478    -11.934807       0.066727       0.000452
 4768   0.018357   -12.465421    -11.951710       0.066727       0.000452
 4769   0.018347   -12.490371    -11.979794       0.066727       0.000452
 4770   0.018340   -12.483846    -11.962391       0.066727       0.000452
 4771   0.018330   -12.516774    -12.003596       0.066727       0.000452
 4772   0.018320   -12.542879    -12.034328       0.066727       0.000452
 4773   0.018312   -12.545103    -12.027866       0.066727       0.000452
 4774   0.018302   -12.584825    -12.077158       0.066727       0.000452
 4775   0.018292   -12.595689    -12.082469       0.066727       0.000452
 4776   0.018285   -12.577449    -12.050151       0.066727       0.000452
 4777   0.018276   -12.622097    -12.109851       0.066727       0.000452
 4778   0.018268   -12.647569    -12.139630       0.066727       0.000452

---------------------- Local Time Stepping Summary ----------------------
MG level: 0 -> Min. DT: 0.000497808. Max. DT: 3.62869. CFL: 10.
MG level: 1 -> Min. DT: 0.000799997. Max. DT: 5.71115. CFL: 8.35917.
MG level: 2 -> Min. DT: 0.00155937. Max. DT: 8.31073. CFL: 7.39444.
-------------------------------------------------------------------------

----------------------- Residual Evolution Summary ----------------------
log10[Maximum residual]: -11.4245.
Maximum residual point 436, located at (0.36366, 0.0609853).
-------------------------------------------------------------------------

 Iter    Time(s)     Res[Rho]     Res[RhoE]      CL(Total)      CD(Total)
 4779   0.018257   -12.621243    -12.096217       0.066727       0.000452
 4780   0.018257   -12.655982    -12.139570       0.066727       0.000452
 4781   0.018246   -12.688141    -12.179311       0.066727       0.000452
 4782   0.018237   -12.694726    -12.178315       0.066727       0.000452
 4783   0.018227   -12.735429    -12.226282       0.066727       0.000452
 4784   0.018218   -12.754473    -12.243425       0.066727       0.000452
 4785   0.018209   -12.727841    -12.200471       0.066727       0.000452
 4786   0.018201   -12.772374    -12.258809       0.066727       0.000452
 4787   0.018193   -12.795588    -12.285438       0.066727       0.000452
 4788   0.018183   -12.765841    -12.239610       0.066727       0.000452
 4789   0.018178   -12.801992    -12.284312       0.066727       0.000452
 4790   0.018170   -12.852092    -12.347634       0.066727       0.000452
 4791   0.018162   -12.880599    -12.372609       0.066727       0.000452
 4792   0.018159   -12.867563    -12.345193       0.066727       0.000452
 4793   0.018149   -12.907036    -12.393415       0.066727       0.000452
 4794   0.018143   -12.936741    -12.426996       0.066727       0.000452
 4795   0.018135   -12.958726    -12.445638       0.066727       0.000452
 4796   0.018130   -12.981329    -12.466534       0.066727       0.000452
 4797   0.018121   -13.006075    -12.492713       0.066727       0.000452

-------------------------- File Output Summary --------------------------
Writing comma-separated values (CSV) surface files.
Merging coordinates in the Master node.
Merging solution in the Master node.
Writing SU2 native restart file.
Writing the forces breakdown file.
-------------------------------------------------------------------------

History file, closed.

------------------------- Solver Postprocessing -------------------------
Deleted CNumerics container.
Deleted CIntegration container.
Deleted CSolver container.
Deleted CIteration container.
Deleted CInterpolator container.
Deleted CTransfer container.
Deleted CGeometry container.
Deleted CFreeFormDefBox class.
Deleted CSurfaceMovement class.
Deleted CVolumetricMovement class.
Deleted CConfig container.
Deleted COutput class.
-------------------------------------------------------------------------

Completed in 6.923436 seconds on 8 cores.

------------------------- Exit Success (SU2_CFD) ------------------------


-------------------------------------------------------------------------
|    ___ _   _ ___                                                      |
|   / __| | | |_  )   Release 5.0.0  "Raven"                            |
|   \__ \ |_| |/ /                                                      |
|   |___/\___//___|   Suite (Solution Exporting Code)                   |
|                                                                       |
-------------------------------------------------------------------------
| SU2 Original Developers: Dr. Francisco D. Palacios.                   |
|                          Dr. Thomas D. Economon.                      |
-------------------------------------------------------------------------
| SU2 Developers:                                                       |
| - Prof. Juan J. Alonso's group at Stanford University.                |
| - Prof. Piero Colonna's group at Delft University of Technology.      |
| - Prof. Nicolas R. Gauger's group at Kaiserslautern U. of Technology. |
| - Prof. Alberto Guardone's group at Polytechnic University of Milan.  |
| - Prof. Rafael Palacios' group at Imperial College London.            |
| - Prof. Edwin van der Weide's group at the University of Twente.      |
| - Prof. Vincent Terrapon's group at the University of Liege.          |
-------------------------------------------------------------------------
| Copyright (C) 2012-2017 SU2, the open-source CFD code.                |
|                                                                       |
| SU2 is free software; you can redistribute it and/or                  |
| modify it under the terms of the GNU Lesser General Public            |
| License as published by the Free Software Foundation; either          |
| version 2.1 of the License, or (at your option) any later version.    |
|                                                                       |
| SU2 is distributed in the hope that it will be useful,                |
| but WITHOUT ANY WARRANTY; without even the implied warranty of        |
| MERCHANTABILITY or FITNESS FOR A PARTICULAR PURPOSE. See the GNU      |
| Lesser General Public License for more details.                       |
|                                                                       |
| You should have received a copy of the GNU Lesser General Public      |
| License along with SU2. If not, see <http://www.gnu.org/licenses/>.   |
-------------------------------------------------------------------------

------------------------ Physical Case Definition -----------------------
Input mesh file name: mesh_NACA0012_inv_deform.su2

-------------------------- Output Information ---------------------------
The output file format is Tecplot ASCII (.dat).
Flow variables file name: flow.

------------------- Config File Boundary Information --------------------
Euler wall boundary marker(s): airfoil.
Far-field boundary marker(s): farfield.

---------------------- Read Grid File Information -----------------------
Two dimensional problem.
5233 points before parallel partitioning.
Performing linear partitioning of the grid nodes.
10216 interior elements before parallel partitioning.
Calling the partitioning functions.
Building the graph adjacency structure.
Distributing elements across all ranks.
2 surface markers.
200 boundary elements in index 0 (Marker = airfoil).
50 boundary elements in index 1 (Marker = farfield).
Calling ParMETIS...
Finished partitioning using ParMETIS (547 edge cuts).
Communicating partition data and creating halo layers.
10763 interior elements including halo cells. 
10763 triangles.
5796 vertices including ghost points. 
Establishing MPI communication patterns.
Identify vertices.

------------------------- Solution Postprocessing -----------------------
Reading and storing the solution from restart_flow.dat.
Merging connectivities in the Master node.
Merging solution in the Master node.
Writing Tecplot ASCII file (volume grid).
Writing Tecplot ASCII file (surface grid).

Completed in 0.121076 seconds on 8 cores.

------------------------- Exit Success (SU2_SOL) ------------------------

