
-------------------------------------------------------------------------
|    ___ _   _ ___                                                      |
|   / __| | | |_  )   Release 5.0.0  "Raven"                            |
|   \__ \ |_| |/ /                                                      |
|   |___/\___//___|   Suite (Computational Fluid Dynamics Code)         |
|                                                                       |
-------------------------------------------------------------------------
| SU2 Original Developers: Dr. Francisco D. Palacios.                   |
|                          Dr. Thomas D. Economon.                      |
-------------------------------------------------------------------------
| SU2 Developers:                                                       |
| - Prof. Juan J. Alonso's group at Stanford University.                |
| - Prof. Piero Colonna's group at Delft University of Technology.      |
| - Prof. Nicolas R. Gauger's group at Kaiserslautern U. of Technology. |
| - Prof. Alberto Guardone's group at Polytechnic University of Milan.  |
| - Prof. Rafael Palacios' group at Imperial College London.            |
| - Prof. Edwin van der Weide's group at the University of Twente.      |
| - Prof. Vincent Terrapon's group at the University of Liege.          |
-------------------------------------------------------------------------
| Copyright (C) 2012-2017 SU2, the open-source CFD code.                |
|                                                                       |
| SU2 is free software; you can redistribute it and/or                  |
| modify it under the terms of the GNU Lesser General Public            |
| License as published by the Free Software Foundation; either          |
| version 2.1 of the License, or (at your option) any later version.    |
|                                                                       |
| SU2 is distributed in the hope that it will be useful,                |
| but WITHOUT ANY WARRANTY; without even the implied warranty of        |
| MERCHANTABILITY or FITNESS FOR A PARTICULAR PURPOSE. See the GNU      |
| Lesser General Public License for more details.                       |
|                                                                       |
| You should have received a copy of the GNU Lesser General Public      |
| License along with SU2. If not, see <http://www.gnu.org/licenses/>.   |
-------------------------------------------------------------------------

------------------------ Physical Case Definition -----------------------
Compressible Euler equations.
Mach number: 0.8.
Angle of attack (AoA): 1.25 deg, and angle of sideslip (AoS): 0 deg.
Read flow solution from: solution_flow.dat.
Non-Dimensional simulation (P=1.0, Rho=1.0, T=1.0 at the farfield).
The reference length/area (force coefficient) is 1.
The reference length (moment computation) is 1.
Reference origin (moment computation) is (0.25, 0, 0).
Surface(s) where the force coefficients are evaluated: airfoil.
Surface(s) plotted in the output file: airfoil.
Surface(s) affected by the design variables: airfoil.
Input mesh file name: mesh_NACA0012_inv_deform.su2

---------------------- Space Numerical Integration ----------------------
Jameson-Schmidt-Turkel scheme for the flow inviscid terms.
JST viscous coefficients (1st, 2nd & 4th): 0.15, 0.5, 0.02.
The method includes a grid stretching correction (p = 0.3).
Second order integration.
Gradient computation using Green-Gauss theorem.

---------------------- Time Numerical Integration -----------------------
Local time stepping (steady state simulation).
Euler implicit method for the flow equations.
V Multigrid Cycle, with 2 multigrid levels.
Damping factor for the residual restriction: 1.
Damping factor for the correction prolongation: 1.
No CFL adaptation.
Multigrid Level:                       0     1     2
Courant-Friedrichs-Lewy number:       10
MG PreSmooth coefficients:             1     2     3
MG PostSmooth coefficients:            0     0     0
MG CorrecSmooth coefficients:          0     0     0

------------------------- Convergence Criteria --------------------------
Maximum number of iterations: 1000.
Reduce the density residual 6 orders of magnitude.
The minimum bound for the density residual is 10^(-13).
Start convergence criteria at iteration 10.

-------------------------- Output Information ---------------------------
Writing a flow solution every 250 iterations.
Writing the convergence history every 1 iterations.
The output file format is Tecplot ASCII (.dat).
Convergence history file name: history_direct.
Forces breakdown file name: forces_breakdown.dat.
Surface flow coefficients file name: surface_flow.
Flow variables file name: flow.
Restart flow file name: restart_flow.dat.

------------------- Config File Boundary Information --------------------
Euler wall boundary marker(s): airfoil.
Far-field boundary marker(s): farfield.

---------------------- Read Grid File Information -----------------------
Two dimensional problem.
5233 points before parallel partitioning.
Performing linear partitioning of the grid nodes.
10216 interior elements before parallel partitioning.
Calling the partitioning functions.
Building the graph adjacency structure.
Distributing elements across all ranks.
2 surface markers.
200 boundary elements in index 0 (Marker = airfoil).
50 boundary elements in index 1 (Marker = farfield).
Calling ParMETIS...
Finished partitioning using ParMETIS (547 edge cuts).
Communicating partition data and creating halo layers.
10763 interior elements including halo cells. 
10763 triangles.
5796 vertices including ghost points. 
Establishing MPI communication patterns.

------------------------- Geometry Preprocessing ------------------------
Setting point connectivity.
Renumbering points (Reverse Cuthill McKee Ordering).
Recomputing point connectivity.
Setting element connectivity.
Checking the numerical grid orientation.
Identifying edges and vertices.
Computing centers of gravity.
Setting the control volume structure.
Area of the computational grid: 1.3e+03.
Searching for the closest normal neighbors to the surfaces.
Compute the surface curvature.
Max K: 7.84e+03. Mean K: 35.7. Standard deviation K: 494.
Checking for periodicity.
Setting the multigrid structure.
MG level: 0 -> CVs: 5796. Agglomeration rate 1/1.00. CFL 10.
MG level: 1 -> CVs: 1800. Agglomeration rate 1/3.22. CFL 8.36.
MG level: 2 -> CVs: 626. Agglomeration rate 1/2.88. CFL 7.39.
Computing wall distances.
Wetted area = 2.03 m.
Area projection in the x-plane = 0.107 m, y-plane = 1 m.

------------------------- Driver information --------------------------
A Fluid driver has been instantiated.

------------------------ Iteration Preprocessing ------------------------
Zone 1: Euler/Navier-Stokes/RANS flow iteration.

------------------------- Solver Preprocessing --------------------------
Inviscid flow: Computing density based on free-stream
temperature and pressure using the ideal gas law.
Force coefficients computed using free-stream values.
-- Input conditions:
Fluid Model: STANDARD_AIR 
Specific gas constant: 287.058 N.m/kg.K.
Specific gas constant (non-dim): 1
Specific Heat Ratio: 1.4
Free-stream static pressure: 101325 Pa.
Free-stream total pressure: 154454 Pa.
Free-stream temperature: 288.15 K.
Free-stream density: 1.22498 kg/m^3.
Free-stream velocity: (272.173, 5.93883) m/s. Magnitude: 272.238 m/s (529.186 KTS).
Free-stream total energy per unit mass: 243846 m^2/s^2.
-- Reference values:
Reference specific gas constant: 287.058 N.m/kg.K.
Reference pressure: 101325 Pa.
Reference temperature: 288.15 K.
Reference density: 1.22498 kg/m^3.
Reference velocity: 287.603 m/s.
Reference energy per unit mass: 82715.8 m^2/s^2.
-- Resulting non-dimensional state:
Mach number (non-dim): 0.8
Specific gas constant (non-dim): 1
Free-stream temperature (non-dim): 1
Free-stream pressure (non-dim): 1
Free-stream density (non-dim): 1
Free-stream velocity (non-dim): (0.946348, 0.0206494). Magnitude: 0.946573
Free-stream total energy per unit mass (non-dim): 2.948

Initialize Jacobian structure (Euler). MG level: 0.
Initialize Jacobian structure (Euler). MG level: 1.
Initialize Jacobian structure (Euler). MG level: 2.

----------------- Integration and Numerics Preprocessing ----------------
Integration Preprocessing.
Numerics Preprocessing.

------------------------------ Begin Solver -----------------------------

---------------------- Local Time Stepping Summary ----------------------
MG level: 0 -> Min. DT: 0.000497809. Max. DT: 3.6287. CFL: 10.
MG level: 1 -> Min. DT: 0.000799997. Max. DT: 5.71116. CFL: 8.35917.
MG level: 2 -> Min. DT: 0.00155937. Max. DT: 8.31074. CFL: 7.39444.
-------------------------------------------------------------------------

----------------------- Residual Evolution Summary ----------------------
log10[Maximum residual]: -7.07114.
Maximum residual point 105, located at (0.00752, 0.0115484).
-------------------------------------------------------------------------

 Iter    Time(s)     Res[Rho]     Res[RhoE]      CL(Total)      CD(Total)
 5516   0.017824    -8.173707     -7.577327       0.066858       0.000448
 5517   0.017609    -8.231466     -7.628186       0.066859       0.000450
 5518   0.017551    -8.234203     -7.634262       0.066860       0.000450
 5519   0.017632    -8.202271     -7.598693       0.066860       0.000450
 5520   0.017667    -8.159855     -7.554441       0.066861       0.000451
 5521   0.017928    -8.126484     -7.523077       0.066862       0.000451
 5522   0.017875    -8.097541     -7.495278       0.066864       0.000451
 5523   0.018731    -8.070622     -7.467506       0.066865       0.000451
 5524   0.020731    -8.052616     -7.448941       0.066865       0.000451
 5525   0.021333    -8.042022     -7.438076       0.066866       0.000451
 5526   0.021170    -8.037690     -7.433619       0.066867       0.000451
 5527   0.021028    -8.038162     -7.434016       0.066868       0.000451
 5528   0.020738    -8.041724     -7.437535       0.066868       0.000451
 5529   0.020479    -8.046992     -7.442835       0.066869       0.000451
 5530   0.020254    -8.053157     -7.449118       0.066869       0.000451
 5531   0.020115    -8.059717     -7.455788       0.066870       0.000451
 5532   0.019922    -8.066164     -7.462140       0.066870       0.000451
 5533   0.019861    -8.071956     -7.467407       0.066871       0.000451
 5534   0.019714    -8.076712     -7.471065       0.066871       0.000452
 5535   0.019620    -8.080402     -7.473103       0.066871       0.000452
 5536   0.019459    -8.083408     -7.474064       0.066871       0.000452
 5537   0.019320    -8.086366     -7.474803       0.066872       0.000452
 5538   0.019156    -8.090036     -7.476277       0.066872       0.000452
 5539   0.019148    -8.095286     -7.479507       0.066872       0.000452
 5540   0.019101    -8.103165     -7.485663       0.066872       0.000452
 5541   0.019035    -8.115042     -7.496227       0.066873       0.000452
 5542   0.018966    -8.132733     -7.513159       0.066873       0.000452
 5543   0.018838    -8.158710     -7.539121       0.066873       0.000452
 5544   0.018725    -8.196546     -7.577985       0.066873       0.000452
 5545   0.018621    -8.251316     -7.635319       0.066873       0.000452
 5546   0.018551    -8.324414     -7.712945       0.066873       0.000452
 5547   0.018559    -8.388788     -7.781778       0.066874       0.000452
 5548   0.018519    -8.422353     -7.817746       0.066874       0.000452
 5549   0.018483    -8.443577     -7.841324       0.066874       0.000452
 5550   0.018415    -8.462607     -7.863536       0.066874       0.000452
 5551   0.018386    -8.477990     -7.882033       0.066875       0.000452
 5552   0.018378    -8.485594     -7.891652       0.066875       0.000452
 5553   0.018310    -8.488288     -7.895703       0.066875       0.000452
 5554   0.018266    -8.490282     -7.899086       0.066875       0.000452
 5555   0.018225    -8.492226     -7.902516       0.066876       0.000452

---------------------- Local Time Stepping Summary ----------------------
MG level: 0 -> Min. DT: 0.000497809. Max. DT: 3.6287. CFL: 10.
MG level: 1 -> Min. DT: 0.000799997. Max. DT: 5.71116. CFL: 8.35917.
MG level: 2 -> Min. DT: 0.00155937. Max. DT: 8.31074. CFL: 7.39444.
-------------------------------------------------------------------------

----------------------- Residual Evolution Summary ----------------------
log10[Maximum residual]: -7.55771.
Maximum residual point 1582, located at (0.537279, 0.217752).
-------------------------------------------------------------------------

 Iter    Time(s)     Res[Rho]     Res[RhoE]      CL(Total)      CD(Total)
 5556   0.018315    -8.493003     -7.904652       0.066876       0.000452
 5557   0.018303    -8.492536     -7.905338       0.066876       0.000452
 5558   0.018251    -8.491443     -7.905187       0.066876       0.000452
 5559   0.018213    -8.490023     -7.904460       0.066877       0.000452
 5560   0.018166    -8.488466     -7.903339       0.066877       0.000452
 5561   0.018131    -8.487173     -7.902266       0.066877       0.000452
 5562   0.018094    -8.486528     -7.901681       0.066877       0.000452
 5563   0.018062    -8.486779     -7.901879       0.066877       0.000452
 5564   0.018081    -8.488157     -7.903137       0.066877       0.000452
 5565   0.018070    -8.490892     -7.905739       0.066877       0.000452
 5566   0.018045    -8.495153     -7.909907       0.066877       0.000452
 5567   0.018006    -8.501073     -7.915825       0.066877       0.000452
 5568   0.017971    -8.508783     -7.923683       0.066878       0.000452
 5569   0.017936    -8.518403     -7.933664       0.066878       0.000452
 5570   0.017905    -8.530021     -7.945919       0.066878       0.000452
 5571   0.017900    -8.543697     -7.960570       0.066878       0.000452
 5572   0.017874    -8.559480     -7.977733       0.066878       0.000452
 5573   0.017852    -8.577414     -7.997520       0.066878       0.000452
 5574   0.017832    -8.597567     -8.020069       0.066878       0.000452
 5575   0.017806    -8.620047     -8.045569       0.066878       0.000452
 5576   0.017811    -8.645022     -8.074284       0.066878       0.000452
 5577   0.017796    -8.672707     -8.106528       0.066878       0.000452
 5578   0.017778    -8.703337     -8.142644       0.066878       0.000452
 5579   0.017838    -8.737099     -8.182893       0.066878       0.000452
 5580   0.017946    -8.773909     -8.227151       0.066878       0.000452
 5581   0.018072    -8.812769     -8.273993       0.066878       0.000452
 5582   0.018099    -8.850000     -8.318248       0.066878       0.000452
 5583   0.018092    -8.876138     -8.346976       0.066879       0.000452
 5584   0.018089    -8.879372     -8.345635       0.066879       0.000452
 5585   0.018057    -8.864569     -8.323363       0.066879       0.000452
 5586   0.018036    -8.847338     -8.300675       0.066879       0.000452
 5587   0.018017    -8.835940     -8.286423       0.066879       0.000452
 5588   0.018009    -8.831425     -8.280481       0.066879       0.000452
 5589   0.017990    -8.830866     -8.278955       0.066879       0.000452
 5590   0.017977    -8.834806     -8.282922       0.066879       0.000452
 5591   0.017965    -8.843995     -8.293496       0.066879       0.000452
 5592   0.017943    -8.855252     -8.306565       0.066879       0.000452
 5593   0.017914    -8.866981     -8.320086       0.066879       0.000452
 5594   0.017896    -8.877953     -8.332534       0.066879       0.000452
 5595   0.017867    -8.886653     -8.341949       0.066879       0.000452

---------------------- Local Time Stepping Summary ----------------------
MG level: 0 -> Min. DT: 0.000497809. Max. DT: 3.6287. CFL: 10.
MG level: 1 -> Min. DT: 0.000799997. Max. DT: 5.71116. CFL: 8.35917.
MG level: 2 -> Min. DT: 0.00155937. Max. DT: 8.31074. CFL: 7.39444.
-------------------------------------------------------------------------

----------------------- Residual Evolution Summary ----------------------
log10[Maximum residual]: -7.73605.
Maximum residual point 1601, located at (0.506504, 0.218592).
-------------------------------------------------------------------------

 Iter    Time(s)     Res[Rho]     Res[RhoE]      CL(Total)      CD(Total)
 5596   0.017846    -8.893766     -8.349321       0.066879       0.000452
 5597   0.017860    -8.900354     -8.356091       0.066879       0.000452
 5598   0.017880    -8.907061     -8.363021       0.066879       0.000452
 5599   0.017870    -8.914119     -8.370323       0.066879       0.000452
 5600   0.017859    -8.921582     -8.378031       0.066879       0.000452
 5601   0.017832    -8.929546     -8.386288       0.066879       0.000452
 5602   0.017801    -8.938145     -8.395303       0.066879       0.000452
 5603   0.017777    -8.947552     -8.405313       0.066879       0.000452
 5604   0.017765    -8.957962     -8.416565       0.066879       0.000452
 5605   0.017749    -8.969588     -8.429314       0.066879       0.000452
 5606   0.017735    -8.982643     -8.443803       0.066879       0.000452
 5607   0.017731    -8.997280     -8.460188       0.066879       0.000452
 5608   0.017721    -9.013563     -8.478514       0.066879       0.000452
 5609   0.017710    -9.031468     -8.498708       0.066879       0.000452
 5610   0.017703    -9.050924     -8.520655       0.066879       0.000452
 5611   0.017691    -9.071777     -8.544142       0.066879       0.000452
 5612   0.017672    -9.093740     -8.568804       0.066879       0.000452
 5613   0.017659    -9.116277     -8.593970       0.066879       0.000452
 5614   0.017644    -9.138308     -8.618270       0.066879       0.000452
 5615   0.017624    -9.157790     -8.638921       0.066879       0.000452
 5616   0.017609    -9.172051     -8.652331       0.066879       0.000452
 5617   0.017590    -9.179193     -8.656851       0.066879       0.000452
 5618   0.017569    -9.178866     -8.652663       0.066879       0.000452
 5619   0.017558    -9.175343     -8.645630       0.066879       0.000452
 5620   0.017539    -9.172579     -8.640633       0.066879       0.000452
 5621   0.017528    -9.172378     -8.639438       0.066879       0.000452
 5622   0.017514    -9.175040     -8.641982       0.066879       0.000452
 5623   0.017533    -9.180981     -8.648623       0.066879       0.000452
 5624   0.017517    -9.190457     -8.659606       0.066879       0.000452
 5625   0.017508    -9.203243     -8.674547       0.066879       0.000452
 5626   0.017491    -9.218807     -8.692673       0.066879       0.000452
 5627   0.017480    -9.236699     -8.713366       0.066879       0.000452
 5628   0.017466    -9.256895     -8.736592       0.066879       0.000452
 5629   0.017453    -9.279671     -8.762678       0.066879       0.000452
 5630   0.017444    -9.304781     -8.791204       0.066879       0.000452
 5631   0.017429    -9.330803     -8.820174       0.066879       0.000452
 5632   0.017422    -9.355754     -8.846966       0.066879       0.000452
 5633   0.017406    -9.378393     -8.870221       0.066879       0.000452
 5634   0.017395    -9.398236     -8.889667       0.066879       0.000452
 5635   0.017378    -9.415363     -8.905685       0.066879       0.000452

---------------------- Local Time Stepping Summary ----------------------
MG level: 0 -> Min. DT: 0.000497809. Max. DT: 3.6287. CFL: 10.
MG level: 1 -> Min. DT: 0.000799997. Max. DT: 5.71116. CFL: 8.35917.
MG level: 2 -> Min. DT: 0.00155937. Max. DT: 8.31074. CFL: 7.39444.
-------------------------------------------------------------------------

----------------------- Residual Evolution Summary ----------------------
log10[Maximum residual]: -8.23366.
Maximum residual point 261, located at (0.583331, 0.0575338).
-------------------------------------------------------------------------

 Iter    Time(s)     Res[Rho]     Res[RhoE]      CL(Total)      CD(Total)
 5636   0.017378    -9.431813     -8.921314       0.066879       0.000452
 5637   0.017378    -9.450841     -8.941056       0.066879       0.000452
 5638   0.017419    -9.472438     -8.964258       0.066879       0.000452
 5639   0.017476    -9.494385     -8.987118       0.066879       0.000452
 5640   0.017539    -9.516888     -9.010207       0.066879       0.000452
 5641   0.017567    -9.539243     -9.032824       0.066879       0.000452
 5642   0.017564    -9.561099     -9.054596       0.066879       0.000452
 5643   0.017559    -9.582819     -9.076213       0.066879       0.000452
 5644   0.017562    -9.604771     -9.098262       0.066879       0.000452
 5645   0.017610    -9.626827     -9.120485       0.066879       0.000452
 5646   0.017666    -9.648979     -9.142875       0.066879       0.000452
 5647   0.017762    -9.671942     -9.166457       0.066879       0.000452
 5648   0.017860    -9.692613     -9.186280       0.066879       0.000452
 5649   0.017934    -9.713786     -9.207310       0.066879       0.000452
 5650   0.017964    -9.736978     -9.231990       0.066879       0.000452
 5651   0.017994    -9.759175     -9.254072       0.066879       0.000452
 5652   0.018041    -9.784002     -9.279975       0.066879       0.000452
 5653   0.018085    -9.802606     -9.296567       0.066879       0.000452
 5654   0.018194    -9.824066     -9.317897       0.066879       0.000452
 5655   0.018277    -9.847097     -9.341673       0.066879       0.000452
 5656   0.018353    -9.865338     -9.358484       0.066879       0.000452
 5657   0.018434    -9.885355     -9.377728       0.066879       0.000452
 5658   0.018508    -9.906363     -9.399103       0.066879       0.000452
 5659   0.018618    -9.927401     -9.420033       0.066879       0.000452
 5660   0.018715    -9.947235     -9.439100       0.066879       0.000452
 5661   0.018771    -9.967864     -9.459309       0.066879       0.000452
 5662   0.018809    -9.989810     -9.481551       0.066879       0.000452
 5663   0.018865   -10.013215     -9.505713       0.066879       0.000452
 5664   0.018893   -10.037612     -9.530877       0.066879       0.000452
 5665   0.018929   -10.062829     -9.556817       0.066879       0.000452
 5666   0.018998   -10.089187     -9.584083       0.066879       0.000452
 5667   0.019064   -10.116475     -9.612382       0.066879       0.000452
 5668   0.019090   -10.144440     -9.641332       0.066879       0.000452
 5669   0.019081   -10.172766     -9.670517       0.066879       0.000452
 5670   0.019074   -10.202087     -9.700918       0.066879       0.000452
 5671   0.019060   -10.232244     -9.732255       0.066879       0.000452
 5672   0.019070   -10.263756     -9.765187       0.066879       0.000452
 5673   0.019111   -10.296294     -9.799149       0.066879       0.000452
 5674   0.019140   -10.329910     -9.834160       0.066879       0.000452
 5675   0.019145   -10.363638     -9.868784       0.066879       0.000452

---------------------- Local Time Stepping Summary ----------------------
MG level: 0 -> Min. DT: 0.000497809. Max. DT: 3.6287. CFL: 10.
MG level: 1 -> Min. DT: 0.000799997. Max. DT: 5.71116. CFL: 8.35917.
MG level: 2 -> Min. DT: 0.00155937. Max. DT: 8.31074. CFL: 7.39444.
-------------------------------------------------------------------------

----------------------- Residual Evolution Summary ----------------------
log10[Maximum residual]: -9.12516.
Maximum residual point 261, located at (0.583331, 0.0575338).
-------------------------------------------------------------------------

 Iter    Time(s)     Res[Rho]     Res[RhoE]      CL(Total)      CD(Total)
 5676   0.019181   -10.396049     -9.901001       0.066879       0.000452
 5677   0.019198   -10.424890     -9.927937       0.066879       0.000452
 5678   0.019182   -10.448973     -9.948707       0.066879       0.000452
 5679   0.019206   -10.471299     -9.968170       0.066879       0.000452
 5680   0.019241   -10.497569     -9.994175       0.066879       0.000452
 5681   0.019272   -10.524497    -10.021156       0.066879       0.000452
 5682   0.019284   -10.533771    -10.023266       0.066879       0.000452
 5683   0.019282   -10.558459    -10.048355       0.066879       0.000452
 5684   0.019261   -10.598475    -10.099954       0.066879       0.000452
 5685   0.019240   -10.635119    -10.138285       0.066879       0.000452
 5686   0.019233   -10.670166    -10.173403       0.066879       0.000452
 5687   0.019228   -10.704950    -10.207897       0.066879       0.000452
 5688   0.019210   -10.733908    -10.234478       0.066879       0.000452
 5689   0.019188   -10.766397    -10.266895       0.066879       0.000452
 5690   0.019173   -10.792845    -10.291083       0.066879       0.000452
 5691   0.019159   -10.821404    -10.319216       0.066879       0.000452
 5692   0.019142   -10.846866    -10.342812       0.066879       0.000452
 5693   0.019124   -10.864216    -10.355327       0.066879       0.000452
 5694   0.019107   -10.876883    -10.362871       0.066879       0.000452
 5695   0.019092   -10.904620    -10.393570       0.066879       0.000452
 5696   0.019093   -10.933959    -10.426246       0.066879       0.000452
 5697   0.019085   -10.956697    -10.447929       0.066879       0.000452
 5698   0.019080   -10.986069    -10.479038       0.066879       0.000452
 5699   0.019067   -11.022653    -10.520443       0.066879       0.000452
 5700   0.019054   -11.050116    -10.546672       0.066879       0.000452
 5701   0.019046   -11.073278    -10.567378       0.066879       0.000452
 5702   0.019038   -11.103179    -10.599292       0.066879       0.000452
 5703   0.019027   -11.125395    -10.619767       0.066879       0.000452
 5704   0.019013   -11.135702    -10.624073       0.066879       0.000452
 5705   0.018996   -11.152170    -10.639377       0.066879       0.000452
 5706   0.018987   -11.172421    -10.660741       0.066879       0.000452
 5707   0.018968   -11.186025    -10.672027       0.066879       0.000452
 5708   0.018960   -11.204210    -10.690092       0.066879       0.000452
 5709   0.018941   -11.226572    -10.714053       0.066879       0.000452
 5710   0.018930   -11.242558    -10.728258       0.066879       0.000452
 5711   0.018914   -11.259840    -10.744750       0.066879       0.000452
 5712   0.018901   -11.281822    -10.768096       0.066879       0.000452
 5713   0.018885   -11.295725    -10.779523       0.066879       0.000452
 5714   0.018871   -11.304508    -10.784682       0.066879       0.000452
 5715   0.018857   -11.319222    -10.799217       0.066879       0.000452

---------------------- Local Time Stepping Summary ----------------------
MG level: 0 -> Min. DT: 0.000497809. Max. DT: 3.6287. CFL: 10.
MG level: 1 -> Min. DT: 0.000799997. Max. DT: 5.71116. CFL: 8.35917.
MG level: 2 -> Min. DT: 0.00155937. Max. DT: 8.31074. CFL: 7.39444.
-------------------------------------------------------------------------

----------------------- Residual Evolution Summary ----------------------
log10[Maximum residual]: -10.1328.
Maximum residual point 436, located at (0.36366, 0.0609837).
-------------------------------------------------------------------------

 Iter    Time(s)     Res[Rho]     Res[RhoE]      CL(Total)      CD(Total)
 5716   0.018845   -11.333178    -10.812535       0.066879       0.000452
 5717   0.018830   -11.335751    -10.810319       0.066879       0.000452
 5718   0.018815   -11.338397    -10.809574       0.066879       0.000452
 5719   0.018807   -11.349807    -10.821493       0.066879       0.000452
 5720   0.018793   -11.360748    -10.832262       0.066879       0.000452
 5721   0.018782   -11.363656    -10.831979       0.066879       0.000452
 5722   0.018770   -11.367486    -10.833590       0.066879       0.000452
 5723   0.018786   -11.378893    -10.845693       0.066879       0.000452
 5724   0.018774   -11.392485    -10.860240       0.066879       0.000452
 5725   0.018761   -11.400384    -10.866695       0.066879       0.000452
 5726   0.018748   -11.407807    -10.872744       0.066879       0.000452
 5727   0.018734   -11.421242    -10.887028       0.066879       0.000452
 5728   0.018720   -11.437386    -10.904590       0.066879       0.000452
 5729   0.018710   -11.447806    -10.914097       0.066879       0.000452
 5730   0.018698   -11.456101    -10.921025       0.066879       0.000452
 5731   0.018687   -11.470209    -10.936022       0.066879       0.000452
 5732   0.018674   -11.487358    -10.954874       0.066879       0.000452
 5733   0.018664   -11.498941    -10.965849       0.066879       0.000452
 5734   0.018652   -11.508694    -10.974566       0.066879       0.000452
 5735   0.018640   -11.523958    -10.990990       0.066879       0.000452
 5736   0.018626   -11.541736    -11.010609       0.066879       0.000452
 5737   0.018614   -11.551526    -11.019168       0.066879       0.000452
 5738   0.018638   -11.561026    -11.027685       0.066879       0.000452
 5739   0.018677   -11.579806    -11.049006       0.066879       0.000452
 5740   0.018707   -11.596021    -11.066389       0.066879       0.000452
 5741   0.018706   -11.603100    -11.071274       0.066879       0.000452
 5742   0.018704   -11.615599    -11.083962       0.066879       0.000452
 5743   0.018692   -11.636453    -11.108112       0.066879       0.000452
 5744   0.018681   -11.646575    -11.117125       0.066879       0.000452
 5745   0.018669   -11.654984    -11.123973       0.066879       0.000452
 5746   0.018657   -11.676112    -11.148433       0.066879       0.000452
 5747   0.018647   -11.690569    -11.163349       0.066879       0.000452
 5748   0.018637   -11.694373    -11.163921       0.066879       0.000452
 5749   0.018627   -11.712313    -11.184074       0.066879       0.000452
 5750   0.018615   -11.735351    -11.210961       0.066879       0.000452
 5751   0.018604   -11.738048    -11.209594       0.066879       0.000452
 5752   0.018591   -11.749886    -11.221078       0.066879       0.000452
 5753   0.018579   -11.773833    -11.249526       0.066879       0.000452
 5754   0.018568   -11.784472    -11.258885       0.066879       0.000452
 5755   0.018571   -11.785991    -11.256365       0.066879       0.000452

---------------------- Local Time Stepping Summary ----------------------
MG level: 0 -> Min. DT: 0.000497809. Max. DT: 3.6287. CFL: 10.
MG level: 1 -> Min. DT: 0.000799997. Max. DT: 5.71116. CFL: 8.35917.
MG level: 2 -> Min. DT: 0.00155937. Max. DT: 8.31074. CFL: 7.39444.
-------------------------------------------------------------------------

----------------------- Residual Evolution Summary ----------------------
log10[Maximum residual]: -10.6903.
Maximum residual point 435, located at (0.33346, 0.0601549).
-------------------------------------------------------------------------

 Iter    Time(s)     Res[Rho]     Res[RhoE]      CL(Total)      CD(Total)
 5756   0.018565   -11.808157    -11.282489       0.066879       0.000452
 5757   0.018567   -11.829930    -11.307493       0.066879       0.000452
 5758   0.018560   -11.829211    -11.301433       0.066879       0.000452
 5759   0.018550   -11.839890    -11.311553       0.066879       0.000452
 5760   0.018542   -11.865420    -11.342485       0.066879       0.000452
 5761   0.018535   -11.875937    -11.351647       0.066879       0.000452
 5762   0.018537   -11.874530    -11.345225       0.066879       0.000452
 5763   0.018529   -11.889485    -11.361774       0.066879       0.000452
 5764   0.018525   -11.910461    -11.386582       0.066879       0.000452
 5765   0.018519   -11.913690    -11.386528       0.066879       0.000452
 5766   0.018517   -11.910567    -11.378882       0.066879       0.000452

-------------------------- File Output Summary --------------------------
Writing comma-separated values (CSV) surface files.
Merging coordinates in the Master node.
Merging solution in the Master node.
Writing SU2 native restart file.
Writing the forces breakdown file.
-------------------------------------------------------------------------

 5767   0.018702   -11.919766    -11.388628       0.066879       0.000452
 5768   0.018696   -11.929162    -11.398908       0.066879       0.000452
 5769   0.018691   -11.935189    -11.404046       0.066879       0.000452
 5770   0.018682   -11.940329    -11.407984       0.066879       0.000452
 5771   0.018673   -11.950620    -11.418874       0.066879       0.000452
 5772   0.018667   -11.961730    -11.430715       0.066879       0.000452
 5773   0.018669   -11.969339    -11.437650       0.066879       0.000452
 5774   0.018664   -11.976369    -11.443880       0.066879       0.000452
 5775   0.018661   -11.992933    -11.462773       0.066879       0.000452
 5776   0.018650   -12.009299    -11.480882       0.066879       0.000452
 5777   0.018653   -12.013453    -11.482496       0.066879       0.000452
 5778   0.018655   -12.025652    -11.494988       0.066879       0.000452
 5779   0.018659   -12.051483    -11.526015       0.066879       0.000452
 5780   0.018655   -12.059418    -11.531705       0.066879       0.000452
 5781   0.018648   -12.075952    -11.549215       0.066879       0.000452
 5782   0.018647   -12.093184    -11.567421       0.066879       0.000452
 5783   0.018638   -12.119944    -11.600634       0.066879       0.000452
 5784   0.018633   -12.101855    -11.573051       0.066879       0.000452
 5785   0.018627   -12.160791    -11.650411       0.066879       0.000452
 5786   0.018675   -12.180794    -11.669668       0.066879       0.000452
 5787   0.018699   -12.152765    -11.627320       0.066879       0.000452
 5788   0.018725   -12.205294    -11.694565       0.066879       0.000452
 5789   0.018774   -12.224748    -11.714845       0.066879       0.000452
 5790   0.018823   -12.197646    -11.673547       0.066879       0.000452
 5791   0.018859   -12.250905    -11.742084       0.066879       0.000452
 5792   0.018869   -12.268488    -11.758941       0.066879       0.000452
 5793   0.018866   -12.241000    -11.716768       0.066879       0.000452
 5794   0.018870   -12.289742    -11.779185       0.066879       0.000452
 5795   0.018867   -12.310459    -11.800399       0.066879       0.000452

---------------------- Local Time Stepping Summary ----------------------
MG level: 0 -> Min. DT: 0.000497809. Max. DT: 3.6287. CFL: 10.
MG level: 1 -> Min. DT: 0.000799997. Max. DT: 5.71116. CFL: 8.35917.
MG level: 2 -> Min. DT: 0.00155937. Max. DT: 8.31074. CFL: 7.39444.
-------------------------------------------------------------------------

----------------------- Residual Evolution Summary ----------------------
log10[Maximum residual]: -11.1603.
Maximum residual point 436, located at (0.36366, 0.0609837).
-------------------------------------------------------------------------

 Iter    Time(s)     Res[Rho]     Res[RhoE]      CL(Total)      CD(Total)
 5796   0.018865   -12.300351    -11.779043       0.066879       0.000452
 5797   0.018860   -12.331053    -11.816555       0.066879       0.000452
 5798   0.018860   -12.339423    -11.821610       0.066879       0.000452
 5799   0.018859   -12.337282    -11.813115       0.066879       0.000452
 5800   0.018857   -12.368087    -11.851307       0.066879       0.000452
 5801   0.018855   -12.389321    -11.874342       0.066879       0.000452
 5802   0.018850   -12.377377    -11.852163       0.066879       0.000452
 5803   0.018845   -12.409866    -11.892813       0.066879       0.000452
 5804   0.018847   -12.437469    -11.925386       0.066879       0.000452
 5805   0.018855   -12.408358    -11.881035       0.066879       0.000452
 5806   0.018865   -12.432681    -11.911221       0.066879       0.000452
 5807   0.018863   -12.449501    -11.930772       0.066879       0.000452
 5808   0.018861   -12.478808    -11.963930       0.066879       0.000452
 5809   0.018859   -12.484561    -11.964782       0.066879       0.000452
 5810   0.018855   -12.501134    -11.981147       0.066879       0.000452
 5811   0.018852   -12.513447    -11.994631       0.066879       0.000452
 5812   0.018868   -12.540386    -12.025302       0.066879       0.000452
 5813   0.018864   -12.561474    -12.046253       0.066879       0.000452
 5814   0.018859   -12.566953    -12.046860       0.066879       0.000452
 5815   0.018856   -12.574367    -12.051906       0.066879       0.000452
 5816   0.018852   -12.580632    -12.056701       0.066879       0.000452
 5817   0.018844   -12.585541    -12.059818       0.066879       0.000452
 5818   0.018837   -12.597911    -12.074276       0.066879       0.000452
 5819   0.018828   -12.607121    -12.083279       0.066879       0.000452
 5820   0.018823   -12.603375    -12.075772       0.066879       0.000452
 5821   0.018817   -12.640589    -12.124052       0.066879       0.000452
 5822   0.018812   -12.646378    -12.125154       0.066879       0.000452
 5823   0.018807   -12.627254    -12.097432       0.066879       0.000452
 5824   0.018802   -12.654990    -12.133612       0.066879       0.000452
 5825   0.018796   -12.692101    -12.178848       0.066879       0.000452
 5826   0.018791   -12.715366    -12.201205       0.066879       0.000452
 5827   0.018784   -12.690579    -12.162597       0.066879       0.000452
 5828   0.018779   -12.725617    -12.208625       0.066879       0.000452
 5829   0.018775   -12.738984    -12.222600       0.066879       0.000452
 5830   0.018769   -12.751877    -12.232775       0.066879       0.000452
 5831   0.018772   -12.772028    -12.254864       0.066879       0.000452
 5832   0.018767   -12.794931    -12.279677       0.066879       0.000452
 5833   0.018761   -12.807385    -12.289305       0.066879       0.000452
 5834   0.018755   -12.827621    -12.311501       0.066879       0.000452
 5835   0.018750   -12.850506    -12.337650       0.066879       0.000452

---------------------- Local Time Stepping Summary ----------------------
MG level: 0 -> Min. DT: 0.000497809. Max. DT: 3.6287. CFL: 10.
MG level: 1 -> Min. DT: 0.000799997. Max. DT: 5.71116. CFL: 8.35917.
MG level: 2 -> Min. DT: 0.00155937. Max. DT: 8.31074. CFL: 7.39444.
-------------------------------------------------------------------------

----------------------- Residual Evolution Summary ----------------------
log10[Maximum residual]: -11.68.
Maximum residual point 378, located at (0.394397, 0.0615098).
-------------------------------------------------------------------------

 Iter    Time(s)     Res[Rho]     Res[RhoE]      CL(Total)      CD(Total)
 5836   0.018746   -12.824992    -12.297523       0.066879       0.000452
 5837   0.018741   -12.854452    -12.337055       0.066879       0.000452
 5838   0.018736   -12.876129    -12.363897       0.066879       0.000452
 5839   0.018731   -12.893065    -12.378763       0.066879       0.000452
 5840   0.018730   -12.914265    -12.401186       0.066879       0.000452
 5841   0.018728   -12.894650    -12.369572       0.066879       0.000452
 5842   0.018729   -12.869231    -12.334321       0.066879       0.000452
 5843   0.018742   -12.896017    -12.371947       0.066879       0.000452
 5844   0.018766   -12.946854    -12.440218       0.066879       0.000452
 5845   0.018785   -12.971877    -12.461717       0.066879       0.000452
 5846   0.018794   -12.965093    -12.442980       0.066879       0.000452
 5847   0.018792   -12.959411    -12.431209       0.066879       0.000452
 5848   0.018788   -13.004111    -12.494319       0.066879       0.000452

-------------------------- File Output Summary --------------------------
Writing comma-separated values (CSV) surface files.
Merging coordinates in the Master node.
Merging solution in the Master node.
Writing SU2 native restart file.
Writing the forces breakdown file.
-------------------------------------------------------------------------

History file, closed.

------------------------- Solver Postprocessing -------------------------
Deleted CNumerics container.
Deleted CIntegration container.
Deleted CSolver container.
Deleted CIteration container.
Deleted CInterpolator container.
Deleted CTransfer container.
Deleted CGeometry container.
Deleted CFreeFormDefBox class.
Deleted CSurfaceMovement class.
Deleted CVolumetricMovement class.
Deleted CConfig container.
Deleted COutput class.
-------------------------------------------------------------------------

Completed in 6.311032 seconds on 8 cores.

------------------------- Exit Success (SU2_CFD) ------------------------


-------------------------------------------------------------------------
|    ___ _   _ ___                                                      |
|   / __| | | |_  )   Release 5.0.0  "Raven"                            |
|   \__ \ |_| |/ /                                                      |
|   |___/\___//___|   Suite (Solution Exporting Code)                   |
|                                                                       |
-------------------------------------------------------------------------
| SU2 Original Developers: Dr. Francisco D. Palacios.                   |
|                          Dr. Thomas D. Economon.                      |
-------------------------------------------------------------------------
| SU2 Developers:                                                       |
| - Prof. Juan J. Alonso's group at Stanford University.                |
| - Prof. Piero Colonna's group at Delft University of Technology.      |
| - Prof. Nicolas R. Gauger's group at Kaiserslautern U. of Technology. |
| - Prof. Alberto Guardone's group at Polytechnic University of Milan.  |
| - Prof. Rafael Palacios' group at Imperial College London.            |
| - Prof. Edwin van der Weide's group at the University of Twente.      |
| - Prof. Vincent Terrapon's group at the University of Liege.          |
-------------------------------------------------------------------------
| Copyright (C) 2012-2017 SU2, the open-source CFD code.                |
|                                                                       |
| SU2 is free software; you can redistribute it and/or                  |
| modify it under the terms of the GNU Lesser General Public            |
| License as published by the Free Software Foundation; either          |
| version 2.1 of the License, or (at your option) any later version.    |
|                                                                       |
| SU2 is distributed in the hope that it will be useful,                |
| but WITHOUT ANY WARRANTY; without even the implied warranty of        |
| MERCHANTABILITY or FITNESS FOR A PARTICULAR PURPOSE. See the GNU      |
| Lesser General Public License for more details.                       |
|                                                                       |
| You should have received a copy of the GNU Lesser General Public      |
| License along with SU2. If not, see <http://www.gnu.org/licenses/>.   |
-------------------------------------------------------------------------

------------------------ Physical Case Definition -----------------------
Input mesh file name: mesh_NACA0012_inv_deform.su2

-------------------------- Output Information ---------------------------
The output file format is Tecplot ASCII (.dat).
Flow variables file name: flow.

------------------- Config File Boundary Information --------------------
Euler wall boundary marker(s): airfoil.
Far-field boundary marker(s): farfield.

---------------------- Read Grid File Information -----------------------
Two dimensional problem.
5233 points before parallel partitioning.
Performing linear partitioning of the grid nodes.
10216 interior elements before parallel partitioning.
Calling the partitioning functions.
Building the graph adjacency structure.
Distributing elements across all ranks.
2 surface markers.
200 boundary elements in index 0 (Marker = airfoil).
50 boundary elements in index 1 (Marker = farfield).
Calling ParMETIS...
Finished partitioning using ParMETIS (547 edge cuts).
Communicating partition data and creating halo layers.
10763 interior elements including halo cells. 
10763 triangles.
5796 vertices including ghost points. 
Establishing MPI communication patterns.
Identify vertices.

------------------------- Solution Postprocessing -----------------------
Reading and storing the solution from restart_flow.dat.
Merging connectivities in the Master node.
Merging solution in the Master node.
Writing Tecplot ASCII file (volume grid).
Writing Tecplot ASCII file (surface grid).

Completed in 0.129762 seconds on 8 cores.

------------------------- Exit Success (SU2_SOL) ------------------------

