
-------------------------------------------------------------------------
|    ___ _   _ ___                                                      |
|   / __| | | |_  )   Release 5.0.0  "Raven"                            |
|   \__ \ |_| |/ /                                                      |
|   |___/\___//___|   Suite (Computational Fluid Dynamics Code)         |
|                                                                       |
-------------------------------------------------------------------------
| SU2 Original Developers: Dr. Francisco D. Palacios.                   |
|                          Dr. Thomas D. Economon.                      |
-------------------------------------------------------------------------
| SU2 Developers:                                                       |
| - Prof. Juan J. Alonso's group at Stanford University.                |
| - Prof. Piero Colonna's group at Delft University of Technology.      |
| - Prof. Nicolas R. Gauger's group at Kaiserslautern U. of Technology. |
| - Prof. Alberto Guardone's group at Polytechnic University of Milan.  |
| - Prof. Rafael Palacios' group at Imperial College London.            |
| - Prof. Edwin van der Weide's group at the University of Twente.      |
| - Prof. Vincent Terrapon's group at the University of Liege.          |
-------------------------------------------------------------------------
| Copyright (C) 2012-2017 SU2, the open-source CFD code.                |
|                                                                       |
| SU2 is free software; you can redistribute it and/or                  |
| modify it under the terms of the GNU Lesser General Public            |
| License as published by the Free Software Foundation; either          |
| version 2.1 of the License, or (at your option) any later version.    |
|                                                                       |
| SU2 is distributed in the hope that it will be useful,                |
| but WITHOUT ANY WARRANTY; without even the implied warranty of        |
| MERCHANTABILITY or FITNESS FOR A PARTICULAR PURPOSE. See the GNU      |
| Lesser General Public License for more details.                       |
|                                                                       |
| You should have received a copy of the GNU Lesser General Public      |
| License along with SU2. If not, see <http://www.gnu.org/licenses/>.   |
-------------------------------------------------------------------------

------------------------ Physical Case Definition -----------------------
Compressible Euler equations.
Mach number: 0.8.
Angle of attack (AoA): 1.25 deg, and angle of sideslip (AoS): 0 deg.
Read flow solution from: solution_flow.dat.
Non-Dimensional simulation (P=1.0, Rho=1.0, T=1.0 at the farfield).
The reference length/area (force coefficient) is 1.
The reference length (moment computation) is 1.
Reference origin (moment computation) is (0.25, 0, 0).
Surface(s) where the force coefficients are evaluated: airfoil.
Surface(s) plotted in the output file: airfoil.
Surface(s) affected by the design variables: airfoil.
Input mesh file name: mesh_deform.su2

---------------------- Space Numerical Integration ----------------------
Jameson-Schmidt-Turkel scheme for the flow inviscid terms.
JST viscous coefficients (1st, 2nd & 4th): 0.15, 0.5, 0.02.
The method includes a grid stretching correction (p = 0.3).
Second order integration.
Gradient computation using Green-Gauss theorem.

---------------------- Time Numerical Integration -----------------------
Local time stepping (steady state simulation).
Euler implicit method for the flow equations.
V Multigrid Cycle, with 2 multigrid levels.
Damping factor for the residual restriction: 1.
Damping factor for the correction prolongation: 1.
No CFL adaptation.
Multigrid Level:                       0     1     2
Courant-Friedrichs-Lewy number:       10
MG PreSmooth coefficients:             1     2     3
MG PostSmooth coefficients:            0     0     0
MG CorrecSmooth coefficients:          0     0     0

------------------------- Convergence Criteria --------------------------
Maximum number of iterations: 1000.
Reduce the density residual 6 orders of magnitude.
The minimum bound for the density residual is 10^(-10).
Start convergence criteria at iteration 10.

-------------------------- Output Information ---------------------------
Writing a flow solution every 250 iterations.
Writing the convergence history every 1 iterations.
The output file format is Paraview ASCII (.vtk).
Convergence history file name: history_direct.
Forces breakdown file name: forces_breakdown.dat.
Surface flow coefficients file name: surface_flow.
Flow variables file name: flow.
Restart flow file name: restart_flow.dat.

------------------- Config File Boundary Information --------------------
Euler wall boundary marker(s): airfoil.
Far-field boundary marker(s): farfield.

---------------------- Read Grid File Information -----------------------
Two dimensional problem.
5233 points.
2 surface markers.
200 boundary elements in index 0 (Marker = airfoil).
50 boundary elements in index 1 (Marker = farfield).
10216 triangles.

------------------------- Geometry Preprocessing ------------------------
Setting point connectivity.
Renumbering points (Reverse Cuthill McKee Ordering).
Recomputing point connectivity.
Setting element connectivity.
Checking the numerical grid orientation.
Identifying edges and vertices.
Computing centers of gravity.
Setting the control volume structure.
Area of the computational grid: 1.25e+03.
Searching for the closest normal neighbors to the surfaces.
Compute the surface curvature.
Max K: 7.84e+03. Mean K: 37. Standard deviation K: 495.
Checking for periodicity.
Setting the multigrid structure.
MG level: 0 -> CVs: 5233. Agglomeration rate 1/1.00. CFL 10.
MG level: 1 -> CVs: 1533. Agglomeration rate 1/3.41. CFL 8.12.
MG level: 2 -> CVs: 443. Agglomeration rate 1/3.46. CFL 6.55.
Computing wall distances.
Wetted area = 2.03 m.
Area projection in the x-plane = 0.091 m, y-plane = 1 m.

------------------------- Driver information --------------------------
A Fluid driver has been instantiated.

------------------------ Iteration Preprocessing ------------------------
Zone 1: Euler/Navier-Stokes/RANS flow iteration.

------------------------- Solver Preprocessing --------------------------
Inviscid flow: Computing density based on free-stream
temperature and pressure using the ideal gas law.
Force coefficients computed using free-stream values.
-- Input conditions:
Fluid Model: STANDARD_AIR 
Specific gas constant: 287.058 N.m/kg.K.
Specific gas constant (non-dim): 1
Specific Heat Ratio: 1.4
Free-stream static pressure: 101325 Pa.
Free-stream total pressure: 154454 Pa.
Free-stream temperature: 288.15 K.
Free-stream density: 1.22498 kg/m^3.
Free-stream velocity: (272.173, 5.93883) m/s. Magnitude: 272.238 m/s (529.186 KTS).
Free-stream total energy per unit mass: 243846 m^2/s^2.
-- Reference values:
Reference specific gas constant: 287.058 N.m/kg.K.
Reference pressure: 101325 Pa.
Reference temperature: 288.15 K.
Reference density: 1.22498 kg/m^3.
Reference velocity: 287.603 m/s.
Reference energy per unit mass: 82715.8 m^2/s^2.
-- Resulting non-dimensional state:
Mach number (non-dim): 0.8
Specific gas constant (non-dim): 1
Free-stream temperature (non-dim): 1
Free-stream pressure (non-dim): 1
Free-stream density (non-dim): 1
Free-stream velocity (non-dim): (0.946348, 0.0206494). Magnitude: 0.946573
Free-stream total energy per unit mass (non-dim): 2.948

Initialize Jacobian structure (Euler). MG level: 0.
Initialize Jacobian structure (Euler). MG level: 1.
Initialize Jacobian structure (Euler). MG level: 2.

----------------- Integration and Numerics Preprocessing ----------------
Integration Preprocessing.
Numerics Preprocessing.

------------------------------ Begin Solver -----------------------------

---------------------- Local Time Stepping Summary ----------------------
MG level: 0 -> Min. DT: 0.0004923. Max. DT: 3.63383. CFL: 10.
MG level: 1 -> Min. DT: 0.000780791. Max. DT: 5.55358. CFL: 8.11871.
MG level: 2 -> Min. DT: 0.0010495. Max. DT: 7.42507. CFL: 6.5465.
-------------------------------------------------------------------------

----------------------- Residual Evolution Summary ----------------------
log10[Maximum residual]: -4.4409.
Maximum residual point 142, located at (0.38654, 0.0457076).
-------------------------------------------------------------------------

 Iter    Time(s)     Res[Rho]     Res[RhoE]      CL(Total)      CD(Total)
 1223   0.068331    -5.519830     -4.923451       0.033193       0.000387
 1224   0.060988    -5.621782     -5.021518       0.032935       0.000248
 1225   0.058538    -5.631311     -5.036350       0.032727       0.000180
 1226   0.056747    -5.624357     -5.028601       0.032557       0.000174
 1227   0.055410    -5.593781     -4.998329       0.032395       0.000186
 1228   0.054811    -5.559108     -4.963478       0.032262       0.000205
 1229   0.053806    -5.542190     -4.947949       0.032148       0.000225
 1230   0.053146    -5.567204     -4.979465       0.032050       0.000240
 1231   0.053279    -5.572285     -4.986853       0.031957       0.000258
 1232   0.052764    -5.564909     -4.977974       0.031888       0.000280
 1233   0.052538    -5.582734     -4.997643       0.031843       0.000281
 1234   0.052133    -5.639721     -5.070858       0.031807       0.000285
 1235   0.051862    -5.672594     -5.110376       0.031787       0.000298
 1236   0.051611    -5.747170     -5.200317       0.031770       0.000299
 1237   0.051417    -5.756438     -5.206766       0.031771       0.000311
 1238   0.051201    -5.765589     -5.220358       0.031785       0.000334
 1239   0.051000    -5.741784     -5.189705       0.031824       0.000351
 1240   0.050879    -5.721049     -5.162192       0.031875       0.000367
 1241   0.050718    -5.709213     -5.145750       0.031931       0.000384
 1242   0.050660    -5.704630     -5.138417       0.031992       0.000399
 1243   0.050532    -5.709487     -5.142645       0.032056       0.000413
 1244   0.050406    -5.724802     -5.159743       0.032122       0.000426
 1245   0.050348    -5.748316     -5.187055       0.032190       0.000438
 1246   0.050263    -5.774205     -5.217469       0.032266       0.000427
 1247   0.050190    -5.811245     -5.263873       0.032324       0.000465
 1248   0.050114    -5.866906     -5.336248       0.032395       0.000463
 1249   0.050025    -5.863191     -5.325213       0.032469       0.000464
 1250   0.049937    -5.850411     -5.305058       0.032534       0.000468
 1251   0.049871    -5.832511     -5.279976       0.032598       0.000469
 1252   0.049816    -5.832903     -5.278287       0.032659       0.000468
 1253   0.049768    -5.843538     -5.289633       0.032717       0.000465
 1254   0.049706    -5.862428     -5.311501       0.032773       0.000462
 1255   0.049651    -5.885640     -5.339098       0.032826       0.000459
 1256   0.049604    -5.912993     -5.372333       0.032877       0.000455
 1257   0.049548    -5.943682     -5.410278       0.032924       0.000451
 1258   0.049530    -5.975024     -5.449410       0.032968       0.000445
 1259   0.049486    -6.001087     -5.481604       0.033004       0.000444
 1260   0.049437    -5.986840     -5.458973       0.033041       0.000452
 1261   0.049477    -6.002820     -5.481588       0.033082       0.000436
 1262   0.049458    -6.019691     -5.501966       0.033111       0.000434

---------------------- Local Time Stepping Summary ----------------------
MG level: 0 -> Min. DT: 0.000492213. Max. DT: 3.63383. CFL: 10.
MG level: 1 -> Min. DT: 0.000780308. Max. DT: 5.55358. CFL: 8.11871.
MG level: 2 -> Min. DT: 0.00104904. Max. DT: 7.42507. CFL: 6.5465.
-------------------------------------------------------------------------

----------------------- Residual Evolution Summary ----------------------
log10[Maximum residual]: -4.87199.
Maximum residual point 1183, located at (0.59689, 0.129659).
-------------------------------------------------------------------------

 Iter    Time(s)     Res[Rho]     Res[RhoE]      CL(Total)      CD(Total)
 1263   0.049422    -6.012977     -5.487850       0.033134       0.000430
 1264   0.049390    -6.006371     -5.476516       0.033156       0.000427
 1265   0.049354    -5.997680     -5.463419       0.033176       0.000424
 1266   0.049320    -5.999828     -5.465367       0.033193       0.000422
 1267   0.049293    -6.015592     -5.486165       0.033207       0.000421
 1268   0.049314    -6.017059     -5.487115       0.033218       0.000418
 1269   0.049304    -5.990445     -5.451378       0.033224       0.000417
 1270   0.049275    -6.005074     -5.473327       0.033228       0.000417
 1271   0.049256    -6.045528     -5.529512       0.033233       0.000418
 1272   0.049248    -6.062313     -5.545865       0.033235       0.000418
 1273   0.049219    -6.066159     -5.543679       0.033236       0.000418
 1274   0.049194    -6.057576     -5.527279       0.033235       0.000419
 1275   0.049159    -6.067305     -5.540005       0.033234       0.000418
 1276   0.049137    -6.089789     -5.570691       0.033231       0.000418
 1277   0.049137    -6.102842     -5.583043       0.033227       0.000418
 1278   0.049113    -6.110463     -5.588360       0.033222       0.000418
 1279   0.049093    -6.114180     -5.590291       0.033216       0.000418
 1280   0.049074    -6.117583     -5.592730       0.033209       0.000419
 1281   0.049052    -6.125823     -5.602252       0.033202       0.000419
 1282   0.049057    -6.139728     -5.619499       0.033194       0.000419
 1283   0.049343    -6.157227     -5.641036       0.033185       0.000420
 1284   0.049367    -6.174948     -5.661905       0.033175       0.000419
 1285   0.049349    -6.190259     -5.678590       0.033166       0.000419
 1286   0.049330    -6.201109     -5.688624       0.033157       0.000419
 1287   0.049305    -6.206692     -5.691588       0.033148       0.000418
 1288   0.049309    -6.209607     -5.691877       0.033139       0.000418
 1289   0.049296    -6.216391     -5.698770       0.033131       0.000417
 1290   0.049271    -6.227892     -5.711795       0.033124       0.000417
 1291   0.049249    -6.234487     -5.716066       0.033118       0.000417
 1292   0.049237    -6.236913     -5.714425       0.033113       0.000417
 1293   0.049219    -6.241468     -5.716704       0.033109       0.000417
 1294   0.049207    -6.246359     -5.719886       0.033105       0.000417
 1295   0.049194    -6.252410     -5.724667       0.033102       0.000417
 1296   0.049173    -6.260852     -5.732695       0.033100       0.000417
 1297   0.049156    -6.271614     -5.743802       0.033099       0.000417
 1298   0.049139    -6.284692     -5.757892       0.033098       0.000417
 1299   0.049123    -6.300227     -5.775104       0.033097       0.000417
 1300   0.049106    -6.317991     -5.795114       0.033097       0.000417
 1301   0.049086    -6.337665     -5.817506       0.033097       0.000417
 1302   0.049075    -6.359053     -5.842022       0.033097       0.000417

---------------------- Local Time Stepping Summary ----------------------
MG level: 0 -> Min. DT: 0.000492222. Max. DT: 3.63383. CFL: 10.
MG level: 1 -> Min. DT: 0.000780271. Max. DT: 5.55358. CFL: 8.11871.
MG level: 2 -> Min. DT: 0.00104903. Max. DT: 7.42507. CFL: 6.5465.
-------------------------------------------------------------------------

----------------------- Residual Evolution Summary ----------------------
log10[Maximum residual]: -5.1439.
Maximum residual point 261, located at (0.58335, 0.0559107).
-------------------------------------------------------------------------

 Iter    Time(s)     Res[Rho]     Res[RhoE]      CL(Total)      CD(Total)
 1303   0.049076    -6.381819     -5.868190       0.033097       0.000417
 1304   0.049066    -6.405271     -5.895032       0.033097       0.000416
 1305   0.049056    -6.428502     -5.921189       0.033097       0.000416
 1306   0.049049    -6.449097     -5.943004       0.033098       0.000417
 1307   0.049047    -6.469713     -5.966385       0.033097       0.000415
 1308   0.049032    -6.477594     -5.968990       0.033097       0.000417
 1309   0.049033    -6.490258     -5.981633       0.033096       0.000415
 1310   0.049063    -6.503162     -5.994561       0.033096       0.000415
 1311   0.049049    -6.503870     -5.990246       0.033094       0.000414
 1312   0.049039    -6.534710     -6.029734       0.033095       0.000415
 1313   0.049033    -6.548152     -6.041386       0.033093       0.000414
 1314   0.049017    -6.556559     -6.046986       0.033092       0.000414
 1315   0.049003    -6.581164     -6.075737       0.033092       0.000414
 1316   0.048989    -6.594169     -6.086720       0.033091       0.000414
 1317   0.048981    -6.603468     -6.091165       0.033091       0.000414
 1318   0.048967    -6.612331     -6.095934       0.033090       0.000413
 1319   0.048954    -6.627172     -6.109336       0.033090       0.000413
 1320   0.048944    -6.645054     -6.127819       0.033089       0.000413
 1321   0.048933    -6.672982     -6.161114       0.033088       0.000413
 1322   0.048929    -6.705126     -6.200040       0.033087       0.000413
 1323   0.048948    -6.733267     -6.231099       0.033086       0.000413
 1324   0.049102    -6.757965     -6.257076       0.033084       0.000413
 1325   0.049207    -6.775201     -6.271199       0.033083       0.000413
 1326   0.049275    -6.790288     -6.283895       0.033081       0.000413
 1327   0.049294    -6.806358     -6.299263       0.033080       0.000412
 1328   0.049312    -6.822913     -6.315689       0.033078       0.000412
 1329   0.049334    -6.839362     -6.331836       0.033077       0.000412
 1330   0.049332    -6.853514     -6.344559       0.033075       0.000412
 1331   0.049328    -6.864893     -6.353567       0.033074       0.000412
 1332   0.049326    -6.875623     -6.362763       0.033072       0.000412
 1333   0.049339    -6.880886     -6.364720       0.033071       0.000412
 1334   0.049327    -6.889355     -6.371116       0.033070       0.000412
 1335   0.049317    -6.903917     -6.386290       0.033070       0.000412
 1336   0.049305    -6.916056     -6.397713       0.033069       0.000412
 1337   0.049292    -6.926314     -6.406521       0.033069       0.000412
 1338   0.049286    -6.935528     -6.414233       0.033068       0.000412
 1339   0.049277    -6.942746     -6.419381       0.033068       0.000412
 1340   0.049269    -6.947995     -6.421975       0.033068       0.000412
 1341   0.049261    -6.952004     -6.423131       0.033068       0.000412
 1342   0.049251    -6.955632     -6.424068       0.033069       0.000412

---------------------- Local Time Stepping Summary ----------------------
MG level: 0 -> Min. DT: 0.000492218. Max. DT: 3.63383. CFL: 10.
MG level: 1 -> Min. DT: 0.000780268. Max. DT: 5.55358. CFL: 8.11871.
MG level: 2 -> Min. DT: 0.00104902. Max. DT: 7.42507. CFL: 6.5465.
-------------------------------------------------------------------------

----------------------- Residual Evolution Summary ----------------------
log10[Maximum residual]: -5.76352.
Maximum residual point 362, located at (0.488629, 0.0596227).
-------------------------------------------------------------------------

 Iter    Time(s)     Res[Rho]     Res[RhoE]      CL(Total)      CD(Total)
 1343   0.049245    -6.959854     -6.426070       0.033069       0.000412
 1344   0.049294    -6.965392     -6.430016       0.033070       0.000412
 1345   0.049289    -6.972652     -6.436346       0.033070       0.000412
 1346   0.049276    -6.981765     -6.445156       0.033071       0.000412
 1347   0.049264    -6.992647     -6.456280       0.033072       0.000412
 1348   0.049249    -7.005125     -6.469449       0.033072       0.000412
 1349   0.049242    -7.018948     -6.484311       0.033073       0.000412
 1350   0.049259    -7.033845     -6.500504       0.033074       0.000412
 1351   0.049256    -7.049540     -6.517680       0.033074       0.000412
 1352   0.049248    -7.065814     -6.535575       0.033075       0.000412
 1353   0.049249    -7.082517     -6.554000       0.033076       0.000412
 1354   0.049238    -7.099549     -6.572825       0.033076       0.000412
 1355   0.049228    -7.116853     -6.591976       0.033077       0.000412
 1356   0.049219    -7.134351     -6.611345       0.033078       0.000412
 1357   0.049207    -7.151941     -6.630785       0.033078       0.000412
 1358   0.049196    -7.169525     -6.650155       0.033079       0.000412
 1359   0.049189    -7.186970     -6.669262       0.033080       0.000412
 1360   0.049179    -7.204084     -6.687830       0.033080       0.000412
 1361   0.049167    -7.220703     -6.705628       0.033081       0.000412
 1362   0.049281    -7.236669     -6.722452       0.033081       0.000412
 1363   0.049268    -7.251835     -6.738126       0.033082       0.000412
 1364   0.049266    -7.266115     -6.752569       0.033083       0.000412
 1365   0.049270    -7.279515     -6.765841       0.033083       0.000412
 1366   0.049268    -7.292143     -6.778132       0.033084       0.000412
 1367   0.049259    -7.304181     -6.789724       0.033085       0.000412
 1368   0.049251    -7.315853     -6.800939       0.033086       0.000412
 1369   0.049246    -7.327403     -6.812112       0.033086       0.000412
 1370   0.049240    -7.339037     -6.823503       0.033087       0.000412
 1371   0.049230    -7.351030     -6.835444       0.033088       0.000412
 1372   0.049222    -7.363642     -6.848259       0.033088       0.000412
 1373   0.049211    -7.377092     -6.862233       0.033089       0.000412
 1374   0.049202    -7.391572     -6.877606       0.033090       0.000412
 1375   0.049194    -7.407080     -6.894341       0.033090       0.000412
 1376   0.049186    -7.423506     -6.912260       0.033091       0.000412
 1377   0.049179    -7.440678     -6.931112       0.033092       0.000412
 1378   0.049174    -7.458403     -6.950618       0.033092       0.000412
 1379   0.049165    -7.476550     -6.970603       0.033093       0.000412
 1380   0.049155    -7.494913     -6.990773       0.033093       0.000412
 1381   0.049145    -7.513269     -7.010769       0.033094       0.000412
 1382   0.049138    -7.531197     -7.029952       0.033094       0.000412

---------------------- Local Time Stepping Summary ----------------------
MG level: 0 -> Min. DT: 0.000492209. Max. DT: 3.63383. CFL: 10.
MG level: 1 -> Min. DT: 0.000780266. Max. DT: 5.55358. CFL: 8.11871.
MG level: 2 -> Min. DT: 0.00104902. Max. DT: 7.42507. CFL: 6.5465.
-------------------------------------------------------------------------

----------------------- Residual Evolution Summary ----------------------
log10[Maximum residual]: -6.29587.
Maximum residual point 357, located at (0.520322, 0.0588041).
-------------------------------------------------------------------------

 Iter    Time(s)     Res[Rho]     Res[RhoE]      CL(Total)      CD(Total)
 1383   0.049128    -7.548217     -7.047670       0.033094       0.000412
 1384   0.049127    -7.563994     -7.063506       0.033095       0.000412
 1385   0.049133    -7.578422     -7.077418       0.033095       0.000412
 1386   0.049140    -7.591591     -7.089654       0.033095       0.000412
 1387   0.049133    -7.603632     -7.100481       0.033096       0.000412
 1388   0.049129    -7.614647     -7.110087       0.033096       0.000412
 1389   0.049122    -7.624700     -7.118574       0.033096       0.000412
 1390   0.049120    -7.633822     -7.125984       0.033096       0.000412
 1391   0.049164    -7.642182     -7.132565       0.033097       0.000412
 1392   0.049174    -7.650040     -7.138678       0.033097       0.000412
 1393   0.049169    -7.657651     -7.144645       0.033097       0.000412
 1394   0.049163    -7.665198     -7.150670       0.033098       0.000412
 1395   0.049154    -7.672772     -7.156830       0.033098       0.000412
 1396   0.049145    -7.680443     -7.163187       0.033098       0.000412
 1397   0.049138    -7.688311     -7.169863       0.033099       0.000412
 1398   0.049127    -7.696534     -7.177066       0.033099       0.000412
 1399   0.049121    -7.705296     -7.185033       0.033099       0.000412
 1400   0.049118    -7.714770     -7.193985       0.033100       0.000412
 1401   0.049109    -7.725102     -7.204105       0.033100       0.000412
 1402   0.049101    -7.736396     -7.215517       0.033100       0.000412
 1403   0.049094    -7.748704     -7.228279       0.033100       0.000412
 1404   0.049087    -7.762018     -7.242363       0.033101       0.000412
 1405   0.049085    -7.776256     -7.257645       0.033101       0.000412
 1406   0.049077    -7.791262     -7.273895       0.033101       0.000412
 1407   0.049085    -7.806808     -7.290781       0.033101       0.000412
 1408   0.049079    -7.822608     -7.307894       0.033102       0.000412
 1409   0.049073    -7.838346     -7.324794       0.033102       0.000412
 1410   0.049065    -7.853717     -7.341066       0.033102       0.000412
 1411   0.049073    -7.868465     -7.356378       0.033102       0.000412
 1412   0.049068    -7.882413     -7.370526       0.033103       0.000412
 1413   0.049062    -7.895482     -7.383451       0.033103       0.000412
 1414   0.049056    -7.907673     -7.395206       0.033103       0.000412
 1415   0.049058    -7.919082     -7.405963       0.033103       0.000412
 1416   0.049056    -7.929836     -7.415925       0.033104       0.000412
 1417   0.049055    -7.940091     -7.425313       0.033104       0.000412
 1418   0.049050    -7.949985     -7.434315       0.033104       0.000412
 1419   0.049051    -7.959677     -7.443136       0.033104       0.000412
 1420   0.049042    -7.969339     -7.451997       0.033104       0.000412
 1421   0.049036    -7.979154     -7.461129       0.033105       0.000412
 1422   0.049028    -7.989285     -7.470732       0.033105       0.000412

---------------------- Local Time Stepping Summary ----------------------
MG level: 0 -> Min. DT: 0.000492206. Max. DT: 3.63383. CFL: 10.
MG level: 1 -> Min. DT: 0.000780265. Max. DT: 5.55358. CFL: 8.11871.
MG level: 2 -> Min. DT: 0.00104902. Max. DT: 7.42507. CFL: 6.5465.
-------------------------------------------------------------------------

----------------------- Residual Evolution Summary ----------------------
log10[Maximum residual]: -6.79071.
Maximum residual point 1072, located at (0.515662, 0.134454).
-------------------------------------------------------------------------

 Iter    Time(s)     Res[Rho]     Res[RhoE]      CL(Total)      CD(Total)
 1423   0.049022    -7.999860     -7.480956       0.033105       0.000412
 1424   0.049018    -8.010970     -7.491905       0.033105       0.000412
 1425   0.049036    -8.022677     -7.503645       0.033106       0.000412
 1426   0.049124    -8.035017     -7.516215       0.033106       0.000412
 1427   0.049171    -8.048008     -7.529629       0.033106       0.000412
 1428   0.049173    -8.061644     -7.543873       0.033106       0.000412
 1429   0.049177    -8.075883     -7.558883       0.033106       0.000412
 1430   0.049195    -8.090645     -7.574541       0.033106       0.000412
 1431   0.049199    -8.105811     -7.590676       0.033107       0.000412
 1432   0.049207    -8.121228     -7.607076       0.033107       0.000412
 1433   0.049202    -8.136738     -7.623521       0.033107       0.000412
 1434   0.049196    -8.152173     -7.639784       0.033107       0.000412
 1435   0.049194    -8.167364     -7.655640       0.033107       0.000412
 1436   0.049198    -8.182143     -7.670872       0.033107       0.000412
 1437   0.049192    -8.196364     -7.685300       0.033108       0.000412
 1438   0.049185    -8.209932     -7.698823       0.033108       0.000412
 1439   0.049180    -8.222820     -7.711438       0.033108       0.000412
 1440   0.049172    -8.235067     -7.723231       0.033108       0.000412
 1441   0.049165    -8.246757     -7.734339       0.033108       0.000412
 1442   0.049158    -8.257997     -7.744918       0.033108       0.000412
 1443   0.049155    -8.268903     -7.755126       0.033108       0.000412
 1444   0.049163    -8.279595     -7.765122       0.033108       0.000412
 1445   0.049164    -8.290196     -7.775062       0.033109       0.000412
 1446   0.049277    -8.300830     -7.785104       0.033109       0.000412
 1447   0.049275    -8.311618     -7.795398       0.033109       0.000412
 1448   0.049268    -8.322669     -7.806078       0.033109       0.000412
 1449   0.049264    -8.334078     -7.817257       0.033109       0.000412
 1450   0.049259    -8.345916     -7.829019       0.033109       0.000412
 1451   0.049259    -8.358234     -7.841419       0.033109       0.000412
 1452   0.049253    -8.371057     -7.854480       0.033109       0.000412
 1453   0.049246    -8.384384     -7.868194       0.033109       0.000412
 1454   0.049239    -8.398187     -7.882512       0.033109       0.000412
 1455   0.049235    -8.412409     -7.897350       0.033110       0.000412
 1456   0.049230    -8.426966     -7.912588       0.033110       0.000412
 1457   0.049223    -8.441750     -7.928075       0.033110       0.000412
 1458   0.049217    -8.456635     -7.943638       0.033110       0.000412
 1459   0.049213    -8.471488     -7.959100       0.033110       0.000412
 1460   0.049208    -8.486180     -7.974290       0.033110       0.000412
 1461   0.049204    -8.500596     -7.989066       0.033110       0.000412
 1462   0.049197    -8.514647     -8.003322       0.033110       0.000412

---------------------- Local Time Stepping Summary ----------------------
MG level: 0 -> Min. DT: 0.000492204. Max. DT: 3.63383. CFL: 10.
MG level: 1 -> Min. DT: 0.000780264. Max. DT: 5.55358. CFL: 8.11871.
MG level: 2 -> Min. DT: 0.00104903. Max. DT: 7.42507. CFL: 6.5465.
-------------------------------------------------------------------------

----------------------- Residual Evolution Summary ----------------------
log10[Maximum residual]: -7.25169.
Maximum residual point 362, located at (0.488629, 0.0596227).
-------------------------------------------------------------------------

 Iter    Time(s)     Res[Rho]     Res[RhoE]      CL(Total)      CD(Total)
 1463   0.049190    -8.528277     -8.017001       0.033110       0.000412
 1464   0.049185    -8.541464     -8.030094       0.033110       0.000412
 1465   0.049180    -8.554224     -8.042640       0.033110       0.000412
 1466   0.049176    -8.566601     -8.054714       0.033110       0.000412
 1467   0.049169    -8.578667     -8.066420       0.033110       0.000412
 1468   0.049165    -8.590507     -8.077879       0.033110       0.000412
 1469   0.049159    -8.602218     -8.089219       0.033111       0.000412
 1470   0.049156    -8.613901     -8.100571       0.033111       0.000412
 1471   0.049151    -8.625654     -8.112063       0.033111       0.000412
 1472   0.049156    -8.637573     -8.123812       0.033111       0.000412
 1473   0.049153    -8.649745     -8.135925       0.033111       0.000412

-------------------------- File Output Summary --------------------------
Writing comma-separated values (CSV) surface files.
Merging connectivities in the Master node.
Merging coordinates in the Master node.
Merging solution in the Master node.
Writing SU2 native restart file.
Writing Paraview ASCII volume solution file.
Writing Paraview ASCII surface solution file.
Writing the forces breakdown file.
-------------------------------------------------------------------------

 1474   0.049389    -8.662241     -8.148490       0.033111       0.000412
 1475   0.049385    -8.675116     -8.161570       0.033111       0.000412
 1476   0.049380    -8.688402     -8.175196       0.033111       0.000412
 1477   0.049374    -8.702103     -8.189364       0.033111       0.000412
 1478   0.049366    -8.716195     -8.204032       0.033111       0.000412
 1479   0.049361    -8.730625     -8.219117       0.033111       0.000412
 1480   0.049356    -8.745312     -8.234504       0.033111       0.000412
 1481   0.049374    -8.760153     -8.250048       0.033111       0.000412
 1482   0.049395    -8.775030     -8.265588       0.033111       0.000412
 1483   0.049414    -8.789824     -8.280962       0.033111       0.000412
 1484   0.049411    -8.804422     -8.296026       0.033111       0.000412
 1485   0.049409    -8.818730     -8.310666       0.033111       0.000412
 1486   0.049402    -8.832684     -8.324810       0.033111       0.000412
 1487   0.049403    -8.846253     -8.338437       0.033111       0.000412
 1488   0.049399    -8.859441     -8.351569       0.033111       0.000412
 1489   0.049398    -8.872280     -8.364264       0.033111       0.000412
 1490   0.049398    -8.884823     -8.376605       0.033111       0.000412
 1491   0.049396    -8.897136     -8.388685       0.033111       0.000412
 1492   0.049391    -8.909292     -8.400604       0.033111       0.000412
 1493   0.049448    -8.921368     -8.412464       0.033111       0.000412
 1494   0.049448    -8.933443     -8.424366       0.033111       0.000412
 1495   0.049447    -8.945598     -8.436416       0.033112       0.000412
 1496   0.049441    -8.957912     -8.448711       0.033112       0.000412
 1497   0.049435    -8.970457     -8.461342       0.033112       0.000412
 1498   0.049430    -8.983304     -8.474391       0.033112       0.000412
 1499   0.049424    -8.996473     -8.487876       0.033112       0.000412
 1500   0.049418    -9.009970     -8.501805       0.033112       0.000412
 1501   0.049415    -9.023794     -8.516162       0.033112       0.000412
 1502   0.049409    -9.037917     -8.530897       0.033112       0.000412

---------------------- Local Time Stepping Summary ----------------------
MG level: 0 -> Min. DT: 0.000492204. Max. DT: 3.63383. CFL: 10.
MG level: 1 -> Min. DT: 0.000780264. Max. DT: 5.55358. CFL: 8.11871.
MG level: 2 -> Min. DT: 0.00104903. Max. DT: 7.42507. CFL: 6.5465.
-------------------------------------------------------------------------

----------------------- Residual Evolution Summary ----------------------
log10[Maximum residual]: -7.80438.
Maximum residual point 362, located at (0.488629, 0.0596227).
-------------------------------------------------------------------------

 Iter    Time(s)     Res[Rho]     Res[RhoE]      CL(Total)      CD(Total)
 1503   0.049408    -9.052285     -8.545924       0.033112       0.000412
 1504   0.049409    -9.066830     -8.561150       0.033112       0.000412
 1505   0.049406    -9.081486     -8.576483       0.033112       0.000412
 1506   0.049420    -9.096172     -8.591807       0.033112       0.000412
 1507   0.049418    -9.110788     -8.606984       0.033112       0.000412
 1508   0.049417    -9.125239     -8.621887       0.033112       0.000412
 1509   0.049412    -9.139460     -8.636441       0.033112       0.000412
 1510   0.049408    -9.153431     -8.650638       0.033112       0.000412
 1511   0.049408    -9.167178     -8.664537       0.033112       0.000412
 1512   0.049417    -9.180752     -8.678222       0.033112       0.000412
 1513   0.049412    -9.194205     -8.691770       0.033112       0.000412
 1514   0.049407    -9.207574     -8.705223       0.033112       0.000412
 1515   0.049402    -9.220869     -8.718592       0.033112       0.000412
 1516   0.049400    -9.234092     -8.731869       0.033112       0.000412
 1517   0.049447    -9.247247     -8.745062       0.033112       0.000412
 1518   0.049468    -9.260350     -8.758197       0.033112       0.000412
 1519   0.049479    -9.273430     -8.771315       0.033112       0.000412
 1520   0.049485    -9.286497     -8.784431       0.033112       0.000412
 1521   0.049507    -9.299519     -8.797481       0.033112       0.000412
 1522   0.049526    -9.312349     -8.810235       0.033112       0.000412
 1523   0.049559    -9.324621     -8.822138       0.033112       0.000412
 1524   0.049631    -9.335662     -8.832251       0.033112       0.000412
 1525   0.049729    -9.345621     -8.841124       0.033112       0.000412
 1526   0.049787    -9.356211     -8.851441       0.033112       0.000412
 1527   0.049846    -9.367751     -8.863414       0.033112       0.000412
 1528   0.049885    -9.380664     -8.877172       0.033112       0.000412
 1529   0.049903    -9.394560     -8.892001       0.033112       0.000412
 1530   0.049924    -9.409947     -8.908521       0.033112       0.000412
 1531   0.049922    -9.423105     -8.921047       0.033112       0.000412
 1532   0.049939    -9.433781     -8.930043       0.033112       0.000412
 1533   0.049963    -9.445275     -8.941061       0.033112       0.000412
 1534   0.049975    -9.457297     -8.953098       0.033112       0.000412
 1535   0.049982    -9.469600     -8.965453       0.033112       0.000412
 1536   0.049987    -9.481966     -8.977869       0.033112       0.000412
 1537   0.050036    -9.493927     -8.989585       0.033112       0.000412
 1538   0.050063    -9.505521     -9.000693       0.033112       0.000412
 1539   0.050082    -9.517122     -9.011908       0.033112       0.000412
 1540   0.050078    -9.529253     -9.024053       0.033112       0.000412
 1541   0.050076    -9.542346     -9.037671       0.033112       0.000412
 1542   0.050081    -9.556159     -9.052233       0.033112       0.000412

---------------------- Local Time Stepping Summary ----------------------
MG level: 0 -> Min. DT: 0.000492204. Max. DT: 3.63383. CFL: 10.
MG level: 1 -> Min. DT: 0.000780264. Max. DT: 5.55358. CFL: 8.11871.
MG level: 2 -> Min. DT: 0.00104903. Max. DT: 7.42507. CFL: 6.5465.
-------------------------------------------------------------------------

----------------------- Residual Evolution Summary ----------------------
log10[Maximum residual]: -8.4004.
Maximum residual point 377, located at (0.456993, 0.0600539).
-------------------------------------------------------------------------

 Iter    Time(s)     Res[Rho]     Res[RhoE]      CL(Total)      CD(Total)
 1543   0.050082    -9.569921     -9.066485       0.033112       0.000412
 1544   0.050087    -9.582893     -9.079398       0.033112       0.000412
 1545   0.050109    -9.594604     -9.090435       0.033112       0.000412
 1546   0.050117    -9.604931     -9.099574       0.033112       0.000412
 1547   0.050128    -9.614096     -9.107264       0.033112       0.000412
 1548   0.050160    -9.622611     -9.114319       0.033112       0.000412
 1549   0.050189    -9.631110     -9.121635       0.033112       0.000412
 1550   0.050222    -9.640095     -9.129840       0.033112       0.000412
 1551   0.050250    -9.649815     -9.139164       0.033112       0.000412
 1552   0.050264    -9.660302     -9.149554       0.033112       0.000412
 1553   0.050268    -9.671471     -9.160830       0.033112       0.000412
 1554   0.050278    -9.683206     -9.172811       0.033112       0.000412
 1555   0.050290    -9.695418     -9.185369       0.033112       0.000412
 1556   0.050309    -9.708031     -9.198408       0.033112       0.000412
 1557   0.050321    -9.720968     -9.211827       0.033112       0.000412
 1558   0.050327    -9.734131     -9.225490       0.033112       0.000412
 1559   0.050324    -9.747404     -9.239238       0.033112       0.000412
 1560   0.050327    -9.760676     -9.252925       0.033112       0.000412
 1561   0.050385    -9.773864     -9.266446       0.033112       0.000412
 1562   0.050398    -9.786921     -9.279750       0.033112       0.000412
 1563   0.050421    -9.799833     -9.292834       0.033112       0.000412
 1564   0.050441    -9.812604     -9.305715       0.033112       0.000412
 1565   0.050465    -9.825241     -9.318408       0.033112       0.000412
 1566   0.050469    -9.837737     -9.330906       0.033112       0.000412
 1567   0.050501    -9.850076     -9.343187       0.033112       0.000412
 1568   0.050518    -9.862233     -9.355217       0.033112       0.000412
 1569   0.050534    -9.874187     -9.366972       0.033112       0.000412
 1570   0.050551    -9.885931     -9.378451       0.033112       0.000412
 1571   0.050552    -9.897479     -9.389680       0.033112       0.000412
 1572   0.050572    -9.908864     -9.400712       0.033112       0.000412
 1573   0.050590    -9.920133     -9.411618       0.033112       0.000412
 1574   0.050603    -9.931343     -9.422475       0.033112       0.000412
 1575   0.050602    -9.942552     -9.433360       0.033112       0.000412
 1576   0.050602    -9.953814     -9.444341       0.033112       0.000412
 1577   0.050602    -9.965180     -9.455486       0.033112       0.000412
 1578   0.050607    -9.976698     -9.466852       0.033112       0.000412
 1579   0.050608    -9.988409     -9.478492       0.033112       0.000412
 1580   0.050605   -10.000347     -9.490442       0.033112       0.000412

-------------------------- File Output Summary --------------------------
Writing comma-separated values (CSV) surface files.
Merging connectivities in the Master node.
Merging coordinates in the Master node.
Merging solution in the Master node.
Writing SU2 native restart file.
Writing Paraview ASCII volume solution file.
Writing Paraview ASCII surface solution file.
Writing the forces breakdown file.
-------------------------------------------------------------------------

History file, closed.

------------------------- Solver Postprocessing -------------------------
Deleted CNumerics container.
Deleted CIntegration container.
Deleted CSolver container.
Deleted CIteration container.
Deleted CInterpolator container.
Deleted CTransfer container.
Deleted CGeometry container.
Deleted CFreeFormDefBox class.
Deleted CSurfaceMovement class.
Deleted CVolumetricMovement class.
Deleted CConfig container.
Deleted COutput class.
-------------------------------------------------------------------------

Completed in 18.200073 seconds on 1 core.

------------------------- Exit Success (SU2_CFD) ------------------------

