
-------------------------------------------------------------------------
|    ___ _   _ ___                                                      |
|   / __| | | |_  )   Release 5.0.0  "Raven"                            |
|   \__ \ |_| |/ /                                                      |
|   |___/\___//___|   Suite (Computational Fluid Dynamics Code)         |
|                                                                       |
-------------------------------------------------------------------------
| SU2 Original Developers: Dr. Francisco D. Palacios.                   |
|                          Dr. Thomas D. Economon.                      |
-------------------------------------------------------------------------
| SU2 Developers:                                                       |
| - Prof. Juan J. Alonso's group at Stanford University.                |
| - Prof. Piero Colonna's group at Delft University of Technology.      |
| - Prof. Nicolas R. Gauger's group at Kaiserslautern U. of Technology. |
| - Prof. Alberto Guardone's group at Polytechnic University of Milan.  |
| - Prof. Rafael Palacios' group at Imperial College London.            |
| - Prof. Edwin van der Weide's group at the University of Twente.      |
| - Prof. Vincent Terrapon's group at the University of Liege.          |
-------------------------------------------------------------------------
| Copyright (C) 2012-2017 SU2, the open-source CFD code.                |
|                                                                       |
| SU2 is free software; you can redistribute it and/or                  |
| modify it under the terms of the GNU Lesser General Public            |
| License as published by the Free Software Foundation; either          |
| version 2.1 of the License, or (at your option) any later version.    |
|                                                                       |
| SU2 is distributed in the hope that it will be useful,                |
| but WITHOUT ANY WARRANTY; without even the implied warranty of        |
| MERCHANTABILITY or FITNESS FOR A PARTICULAR PURPOSE. See the GNU      |
| Lesser General Public License for more details.                       |
|                                                                       |
| You should have received a copy of the GNU Lesser General Public      |
| License along with SU2. If not, see <http://www.gnu.org/licenses/>.   |
-------------------------------------------------------------------------

------------------------ Physical Case Definition -----------------------
Compressible Euler equations.
Mach number: 0.8.
Angle of attack (AoA): 1.25 deg, and angle of sideslip (AoS): 0 deg.
Read flow solution from: solution_flow.dat.
Non-Dimensional simulation (P=1.0, Rho=1.0, T=1.0 at the farfield).
The reference length/area (force coefficient) is 1.
The reference length (moment computation) is 1.
Reference origin (moment computation) is (0.25, 0, 0).
Surface(s) where the force coefficients are evaluated: airfoil.
Surface(s) plotted in the output file: airfoil.
Surface(s) affected by the design variables: airfoil.
Input mesh file name: mesh_NACA0012_inv_deform.su2

---------------------- Space Numerical Integration ----------------------
Jameson-Schmidt-Turkel scheme for the flow inviscid terms.
JST viscous coefficients (1st, 2nd & 4th): 0.15, 0.5, 0.02.
The method includes a grid stretching correction (p = 0.3).
Second order integration.
Gradient computation using Green-Gauss theorem.

---------------------- Time Numerical Integration -----------------------
Local time stepping (steady state simulation).
Euler implicit method for the flow equations.
V Multigrid Cycle, with 2 multigrid levels.
Damping factor for the residual restriction: 1.
Damping factor for the correction prolongation: 1.
No CFL adaptation.
Multigrid Level:                       0     1     2
Courant-Friedrichs-Lewy number:       10
MG PreSmooth coefficients:             1     2     3
MG PostSmooth coefficients:            0     0     0
MG CorrecSmooth coefficients:          0     0     0

------------------------- Convergence Criteria --------------------------
Maximum number of iterations: 1000.
Reduce the density residual 6 orders of magnitude.
The minimum bound for the density residual is 10^(-10).
Start convergence criteria at iteration 10.

-------------------------- Output Information ---------------------------
Writing a flow solution every 250 iterations.
Writing the convergence history every 1 iterations.
The output file format is Paraview ASCII (.vtk).
Convergence history file name: history_direct.
Forces breakdown file name: forces_breakdown.dat.
Surface flow coefficients file name: surface_flow.
Flow variables file name: flow.
Restart flow file name: restart_flow.dat.

------------------- Config File Boundary Information --------------------
Euler wall boundary marker(s): airfoil.
Far-field boundary marker(s): farfield.

---------------------- Read Grid File Information -----------------------
Two dimensional problem.
5233 points.
2 surface markers.
200 boundary elements in index 0 (Marker = airfoil).
50 boundary elements in index 1 (Marker = farfield).
10216 triangles.

------------------------- Geometry Preprocessing ------------------------
Setting point connectivity.
Renumbering points (Reverse Cuthill McKee Ordering).
Recomputing point connectivity.
Setting element connectivity.
Checking the numerical grid orientation.
Identifying edges and vertices.
Computing centers of gravity.
Setting the control volume structure.
Area of the computational grid: 1.25e+03.
Searching for the closest normal neighbors to the surfaces.
Compute the surface curvature.
Max K: 7.84e+03. Mean K: 35. Standard deviation K: 494.
Checking for periodicity.
Setting the multigrid structure.
MG level: 0 -> CVs: 5233. Agglomeration rate 1/1.00. CFL 10.
MG level: 1 -> CVs: 1533. Agglomeration rate 1/3.41. CFL 8.12.
MG level: 2 -> CVs: 443. Agglomeration rate 1/3.46. CFL 6.55.
Computing wall distances.
Wetted area = 2.04 m.
Area projection in the x-plane = 0.113 m, y-plane = 1 m.

------------------------- Driver information --------------------------
A Fluid driver has been instantiated.

------------------------ Iteration Preprocessing ------------------------
Zone 1: Euler/Navier-Stokes/RANS flow iteration.

------------------------- Solver Preprocessing --------------------------
Inviscid flow: Computing density based on free-stream
temperature and pressure using the ideal gas law.
Force coefficients computed using free-stream values.
-- Input conditions:
Fluid Model: STANDARD_AIR 
Specific gas constant: 287.058 N.m/kg.K.
Specific gas constant (non-dim): 1
Specific Heat Ratio: 1.4
Free-stream static pressure: 101325 Pa.
Free-stream total pressure: 154454 Pa.
Free-stream temperature: 288.15 K.
Free-stream density: 1.22498 kg/m^3.
Free-stream velocity: (272.173, 5.93883) m/s. Magnitude: 272.238 m/s (529.186 KTS).
Free-stream total energy per unit mass: 243846 m^2/s^2.
-- Reference values:
Reference specific gas constant: 287.058 N.m/kg.K.
Reference pressure: 101325 Pa.
Reference temperature: 288.15 K.
Reference density: 1.22498 kg/m^3.
Reference velocity: 287.603 m/s.
Reference energy per unit mass: 82715.8 m^2/s^2.
-- Resulting non-dimensional state:
Mach number (non-dim): 0.8
Specific gas constant (non-dim): 1
Free-stream temperature (non-dim): 1
Free-stream pressure (non-dim): 1
Free-stream density (non-dim): 1
Free-stream velocity (non-dim): (0.946348, 0.0206494). Magnitude: 0.946573
Free-stream total energy per unit mass (non-dim): 2.948

Initialize Jacobian structure (Euler). MG level: 0.
Initialize Jacobian structure (Euler). MG level: 1.
Initialize Jacobian structure (Euler). MG level: 2.

----------------- Integration and Numerics Preprocessing ----------------
Integration Preprocessing.
Numerics Preprocessing.

------------------------------ Begin Solver -----------------------------

---------------------- Local Time Stepping Summary ----------------------
MG level: 0 -> Min. DT: 0.000492936. Max. DT: 3.62533. CFL: 10.
MG level: 1 -> Min. DT: 0.000778262. Max. DT: 5.54139. CFL: 8.11871.
MG level: 2 -> Min. DT: 0.00103897. Max. DT: 7.4073. CFL: 6.5465.
-------------------------------------------------------------------------

----------------------- Residual Evolution Summary ----------------------
log10[Maximum residual]: -3.45931.
Maximum residual point 114, located at (0.05149, 0.0319778).
-------------------------------------------------------------------------

 Iter    Time(s)     Res[Rho]     Res[RhoE]      CL(Total)      CD(Total)
  352   0.058493    -4.559581     -3.963197       0.321673       0.011707
  353   0.054884    -4.607992     -4.006047       0.313052       0.012004
  354   0.053836    -4.628361     -4.033672       0.309171       0.011647
  355   0.053229    -4.626676     -4.031523       0.305833       0.011617
  356   0.052817    -4.565678     -3.970046       0.301807       0.011612
  357   0.052131    -4.501587     -3.907434       0.297799       0.011513
  358   0.051630    -4.455973     -3.865978       0.293714       0.011346
  359   0.051279    -4.436410     -3.856866       0.289698       0.011101
  360   0.050980    -4.430808     -3.865081       0.285844       0.010678
  361   0.051125    -4.424226     -3.870663       0.281983       0.010333
  362   0.051237    -4.428500     -3.890439       0.278545       0.009819
  363   0.051056    -4.436486     -3.909832       0.275201       0.009508
  364   0.050925    -4.424784     -3.895493       0.272230       0.009262
  365   0.050822    -4.407414     -3.872270       0.269508       0.009025
  366   0.050707    -4.391278     -3.851975       0.267019       0.008908
  367   0.050709    -4.383733     -3.844707       0.264768       0.008846
  368   0.050838    -4.389132     -3.855466       0.262750       0.008839
  369   0.050771    -4.403172     -3.876787       0.260977       0.008836
  370   0.050640    -4.424037     -3.905137       0.259455       0.008821
  371   0.050523    -4.446476     -3.930755       0.258177       0.008785
  372   0.050503    -4.463786     -3.944873       0.257103       0.008746
  373   0.050535    -4.476391     -3.949906       0.256187       0.008715
  374   0.050513    -4.488195     -3.954225       0.255391       0.008690
  375   0.050523    -4.503515     -3.964474       0.254666       0.008663
  376   0.050560    -4.525449     -3.984324       0.253999       0.008633
  377   0.050615    -4.556938     -4.018500       0.253356       0.008597
  378   0.050547    -4.601295     -4.071063       0.252720       0.008546
  379   0.050470    -4.664990     -4.150157       0.252084       0.008517
  380   0.050404    -4.730504     -4.228863       0.251497       0.008478
  381   0.050350    -4.772683     -4.264755       0.250925       0.008429
  382   0.050327    -4.800032     -4.280572       0.250382       0.008388
  383   0.050293    -4.823859     -4.293963       0.249859       0.008347
  384   0.050245    -4.850384     -4.313404       0.249366       0.008311
  385   0.050256    -4.879986     -4.338415       0.248907       0.008280
  386   0.050218    -4.912342     -4.367736       0.248480       0.008256
  387   0.050251    -4.948180     -4.400554       0.248086       0.008237
  388   0.050314    -4.985873     -4.435409       0.247723       0.008224
  389   0.050277    -5.026003     -4.473281       0.247391       0.008216
  390   0.050241    -5.068185     -4.513851       0.247087       0.008212
  391   0.050205    -5.111792     -4.556369       0.246812       0.008210

---------------------- Local Time Stepping Summary ----------------------
MG level: 0 -> Min. DT: 0.000494008. Max. DT: 3.62526. CFL: 10.
MG level: 1 -> Min. DT: 0.000779317. Max. DT: 5.54191. CFL: 8.11871.
MG level: 2 -> Min. DT: 0.00103881. Max. DT: 7.40781. CFL: 6.5465.
-------------------------------------------------------------------------

----------------------- Residual Evolution Summary ----------------------
log10[Maximum residual]: -3.97203.
Maximum residual point 261, located at (0.583459, 0.0592357).
-------------------------------------------------------------------------

 Iter    Time(s)     Res[Rho]     Res[RhoE]      CL(Total)      CD(Total)
  392   0.050191    -5.155257     -4.598705       0.246562       0.008210
  393   0.050261    -5.196340     -4.638150       0.246339       0.008211
  394   0.050252    -5.233430     -4.673113       0.246139       0.008212
  395   0.050246    -5.266328     -4.703707       0.245961       0.008212
  396   0.050212    -5.296020     -4.731299       0.245804       0.008211
  397   0.050212    -5.323465     -4.757058       0.245666       0.008210
  398   0.050203    -5.349117     -4.781545       0.245546       0.008208
  399   0.050159    -5.373323     -4.805057       0.245441       0.008205
  400   0.050144    -5.396231     -4.827619       0.245350       0.008202
  401   0.050145    -5.418034     -4.849334       0.245272       0.008198
  402   0.050124    -5.438887     -4.870267       0.245205       0.008195
  403   0.050113    -5.459269     -4.890816       0.245148       0.008191
  404   0.050127    -5.479728     -4.911528       0.245099       0.008188
  405   0.050106    -5.500878     -4.933006       0.245057       0.008186
  406   0.050094    -5.523404     -4.955911       0.245021       0.008183
  407   0.050158    -5.547500     -4.980552       0.244990       0.008182
  408   0.050216    -5.573665     -5.007501       0.244963       0.008181
  409   0.050186    -5.601913     -5.036799       0.244940       0.008180
  410   0.050165    -5.632444     -5.068743       0.244919       0.008180
  411   0.050147    -5.665837     -5.104102       0.244901       0.008180
  412   0.050127    -5.702572     -5.143554       0.244885       0.008181
  413   0.050130    -5.742720     -5.187223       0.244870       0.008182
  414   0.050129    -5.785171     -5.233648       0.244857       0.008183
  415   0.050183    -5.825744     -5.277026       0.244845       0.008184
  416   0.050229    -5.854215     -5.304438       0.244834       0.008185
  417   0.050213    -5.868020     -5.313386       0.244824       0.008186
  418   0.050191    -5.877994     -5.317424       0.244814       0.008187
  419   0.050167    -5.891609     -5.331368       0.244804       0.008188
  420   0.050160    -5.891217     -5.325840       0.244793       0.008188
  421   0.050141    -5.894039     -5.324596       0.244781       0.008188
  422   0.050133    -5.922320     -5.360175       0.244769       0.008188
  423   0.050110    -5.966259     -5.417240       0.244757       0.008188
  424   0.050103    -5.989924     -5.442224       0.244746       0.008188
  425   0.050104    -6.006535     -5.455536       0.244734       0.008187
  426   0.050105    -6.024781     -5.471258       0.244721       0.008187
  427   0.050163    -6.042308     -5.487066       0.244708       0.008187
  428   0.050201    -6.053293     -5.495046       0.244695       0.008186
  429   0.050203    -6.065359     -5.504425       0.244680       0.008186
  430   0.050190    -6.075958     -5.512209       0.244665       0.008185
  431   0.050177    -6.085767     -5.519324       0.244650       0.008185

---------------------- Local Time Stepping Summary ----------------------
MG level: 0 -> Min. DT: 0.000494032. Max. DT: 3.62526. CFL: 10.
MG level: 1 -> Min. DT: 0.000779257. Max. DT: 5.54192. CFL: 8.11871.
MG level: 2 -> Min. DT: 0.00103874. Max. DT: 7.40783. CFL: 6.5465.
-------------------------------------------------------------------------

----------------------- Residual Evolution Summary ----------------------
log10[Maximum residual]: -5.03758.
Maximum residual point 295, located at (0.441605, -0.0717555).
-------------------------------------------------------------------------

 Iter    Time(s)     Res[Rho]     Res[RhoE]      CL(Total)      CD(Total)
  432   0.050169    -6.094547     -5.525484       0.244634       0.008184
  433   0.050192    -6.102950     -5.531455       0.244617       0.008184
  434   0.050217    -6.110890     -5.537095       0.244599       0.008183
  435   0.050217    -6.118825     -5.542924       0.244580       0.008182
  436   0.050221    -6.126692     -5.548841       0.244561       0.008182
  437   0.050342    -6.134652     -5.555020       0.244541       0.008181
  438   0.050445    -6.142697     -5.561444       0.244521       0.008181
  439   0.050606    -6.150915     -5.568213       0.244500       0.008180
  440   0.050693    -6.159361     -5.575384       0.244478       0.008179
  441   0.050712    -6.168123     -5.583060       0.244456       0.008179
  442   0.050721    -6.177253     -5.591302       0.244434       0.008178
  443   0.050790    -6.186770     -5.600131       0.244412       0.008177
  444   0.050792    -6.196757     -5.609648       0.244389       0.008177
  445   0.050798    -6.207291     -5.619939       0.244366       0.008176
  446   0.050819    -6.218352     -5.630989       0.244344       0.008175
  447   0.050838    -6.229899     -5.642751       0.244321       0.008174
  448   0.050834    -6.241860     -5.655133       0.244298       0.008174
  449   0.050823    -6.254267     -5.668179       0.244275       0.008173
  450   0.050813    -6.267084     -5.681843       0.244252       0.008172
  451   0.050795    -6.280273     -5.696073       0.244229       0.008171
  452   0.050859    -6.293775     -5.710791       0.244207       0.008170
  453   0.050871    -6.307613     -5.726015       0.244184       0.008169
  454   0.050894    -6.321762     -5.741702       0.244162       0.008169
  455   0.050913    -6.336209     -5.757822       0.244140       0.008168
  456   0.050904    -6.350893     -5.774282       0.244119       0.008167
  457   0.050885    -6.365746     -5.790976       0.244098       0.008166
  458   0.050859    -6.380666     -5.807753       0.244077       0.008166
  459   0.050852    -6.395574     -5.824486       0.244057       0.008165
  460   0.050846    -6.410468     -5.841157       0.244037       0.008164
  461   0.050832    -6.425402     -5.857823       0.244018       0.008163
  462   0.050823    -6.440295     -5.874349       0.243999       0.008163
  463   0.050817    -6.454950     -5.890460       0.243981       0.008162
  464   0.050805    -6.469370     -5.906150       0.243964       0.008161
  465   0.050820    -6.483571     -5.921439       0.243947       0.008161
  466   0.050834    -6.497512     -5.936275       0.243930       0.008160
  467   0.050837    -6.511166     -5.950623       0.243914       0.008160
  468   0.050819    -6.524514     -5.964454       0.243899       0.008159
  469   0.050806    -6.537569     -5.977793       0.243884       0.008159
  470   0.050791    -6.550352     -5.990673       0.243870       0.008158
  471   0.050793    -6.562855     -6.003090       0.243857       0.008158

---------------------- Local Time Stepping Summary ----------------------
MG level: 0 -> Min. DT: 0.000494015. Max. DT: 3.62526. CFL: 10.
MG level: 1 -> Min. DT: 0.000779254. Max. DT: 5.54193. CFL: 8.11871.
MG level: 2 -> Min. DT: 0.00103873. Max. DT: 7.40783. CFL: 6.5465.
-------------------------------------------------------------------------

----------------------- Residual Evolution Summary ----------------------
log10[Maximum residual]: -5.46538.
Maximum residual point 385, located at (0.567803, 0.0602454).
-------------------------------------------------------------------------

 Iter    Time(s)     Res[Rho]     Res[RhoE]      CL(Total)      CD(Total)
  472   0.050796    -6.575061     -6.015037       0.243843       0.008157
  473   0.050799    -6.586985     -6.026544       0.243831       0.008157
  474   0.050790    -6.598611     -6.037600       0.243818       0.008156
  475   0.050784    -6.609916     -6.048189       0.243807       0.008156
  476   0.050769    -6.620932     -6.058364       0.243795       0.008155
  477   0.050810    -6.631777     -6.068296       0.243784       0.008155
  478   0.050812    -6.642527     -6.078087       0.243773       0.008155
  479   0.050798    -6.653197     -6.087754       0.243763       0.008154
  480   0.050788    -6.663783     -6.097299       0.243753       0.008154
  481   0.050775    -6.674288     -6.106738       0.243743       0.008154
  482   0.050778    -6.684748     -6.116123       0.243733       0.008153
  483   0.050768    -6.695212     -6.125522       0.243724       0.008153
  484   0.050751    -6.705702     -6.134966       0.243714       0.008153
  485   0.050745    -6.716228     -6.144474       0.243705       0.008152
  486   0.050754    -6.726810     -6.154073       0.243696       0.008152
  487   0.050755    -6.737502     -6.163839       0.243688       0.008152
  488   0.050742    -6.748361     -6.173851       0.243679       0.008151
  489   0.050726    -6.759447     -6.184179       0.243671       0.008151
  490   0.050752    -6.770767     -6.194838       0.243662       0.008151
  491   0.050749    -6.782294     -6.205792       0.243654       0.008151
  492   0.050779    -6.794016     -6.217028       0.243646       0.008150
  493   0.050801    -6.805950     -6.228572       0.243638       0.008150
  494   0.050810    -6.818155     -6.240500       0.243631       0.008150
  495   0.050840    -6.830645     -6.252831       0.243623       0.008150
  496   0.050829    -6.843291     -6.265429       0.243616       0.008149
  497   0.050816    -6.855816     -6.278036       0.243609       0.008149
  498   0.050808    -6.868574     -6.291068       0.243601       0.008149
  499   0.050792    -6.881470     -6.304375       0.243594       0.008149
  500   0.050780    -6.894606     -6.318051       0.243588       0.008148
  501   0.050771    -6.907933     -6.332014       0.243581       0.008148
  502   0.050783    -6.921577     -6.346411       0.243574       0.008148
  503   0.050770    -6.935551     -6.361251       0.243568       0.008148
  504   0.050759    -6.949857     -6.376526       0.243561       0.008147
  505   0.050774    -6.964409     -6.392116       0.243555       0.008147
  506   0.050782    -6.979073     -6.407848       0.243549       0.008147
  507   0.050780    -6.993739     -6.423585       0.243543       0.008147
  508   0.050770    -7.008348     -6.439254       0.243537       0.008146
  509   0.050765    -7.022883     -6.454831       0.243531       0.008146
  510   0.050780    -7.037338     -6.470305       0.243526       0.008146
  511   0.050786    -7.051705     -6.485658       0.243520       0.008146

---------------------- Local Time Stepping Summary ----------------------
MG level: 0 -> Min. DT: 0.000493998. Max. DT: 3.62526. CFL: 10.
MG level: 1 -> Min. DT: 0.000779248. Max. DT: 5.54193. CFL: 8.11871.
MG level: 2 -> Min. DT: 0.00103873. Max. DT: 7.40783. CFL: 6.5465.
-------------------------------------------------------------------------

----------------------- Residual Evolution Summary ----------------------
log10[Maximum residual]: -5.88068.
Maximum residual point 385, located at (0.567803, 0.0602454).
-------------------------------------------------------------------------

 Iter    Time(s)     Res[Rho]     Res[RhoE]      CL(Total)      CD(Total)
  512   0.050793    -7.065975     -6.500872       0.243515       0.008146
  513   0.050781    -7.080131     -6.515919       0.243510       0.008146
  514   0.050767    -7.094151     -6.530769       0.243505       0.008145
  515   0.050766    -7.108035     -6.545418       0.243500       0.008145
  516   0.050754    -7.121776     -6.559858       0.243495       0.008145
  517   0.050743    -7.135388     -6.574107       0.243490       0.008145
  518   0.050730    -7.148873     -6.588160       0.243486       0.008145
  519   0.050720    -7.162177     -6.601943       0.243481       0.008145
  520   0.050705    -7.175278     -6.615433       0.243477       0.008144
  521   0.050693    -7.188187     -6.628652       0.243473       0.008144
  522   0.050690    -7.200919     -6.641624       0.243468       0.008144
  523   0.050697    -7.213481     -6.654360       0.243464       0.008144
  524   0.050683    -7.225865     -6.666852       0.243460       0.008144
  525   0.050686    -7.238053     -6.679080       0.243456       0.008144
  526   0.050702    -7.250021     -6.691020       0.243452       0.008144
  527   0.050693    -7.261760     -6.702666       0.243448       0.008143
  528   0.050680    -7.273261     -6.714014       0.243445       0.008143
  529   0.050669    -7.284514     -6.725058       0.243441       0.008143
  530   0.050662    -7.295507     -6.735789       0.243438       0.008143
  531   0.050664    -7.306245     -6.746221       0.243434       0.008143
  532   0.050666    -7.316740     -6.756374       0.243431       0.008143
  533   0.050715    -7.327009     -6.766274       0.243427       0.008143
  534   0.050782    -7.337066     -6.775942       0.243424       0.008143
  535   0.050855    -7.346937     -6.785415       0.243421       0.008142
  536   0.050892    -7.356639     -6.794718       0.243418       0.008142
  537   0.050918    -7.366178     -6.803854       0.243415       0.008142
  538   0.050923    -7.375559     -6.812830       0.243412       0.008142
  539   0.050989    -7.384798     -6.821666       0.243409       0.008142
  540   0.051006    -7.393914     -6.830388       0.243406       0.008142
  541   0.051032    -7.402926     -6.839017       0.243403       0.008142
  542   0.051018    -7.411862     -6.847587       0.243400       0.008142
  543   0.051016    -7.420734     -6.856111       0.243397       0.008142
  544   0.051024    -7.429551     -6.864597       0.243395       0.008142
  545   0.051018    -7.438324     -6.873055       0.243392       0.008142
  546   0.051010    -7.447068     -6.881505       0.243390       0.008141
  547   0.051000    -7.455798     -6.889961       0.243387       0.008141
  548   0.050992    -7.464528     -6.898440       0.243385       0.008141
  549   0.050987    -7.473272     -6.906956       0.243382       0.008141
  550   0.050995    -7.482041     -6.915520       0.243380       0.008141
  551   0.050992    -7.490848     -6.924145       0.243378       0.008141

---------------------- Local Time Stepping Summary ----------------------
MG level: 0 -> Min. DT: 0.000493992. Max. DT: 3.62526. CFL: 10.
MG level: 1 -> Min. DT: 0.000779247. Max. DT: 5.54193. CFL: 8.11871.
MG level: 2 -> Min. DT: 0.00103873. Max. DT: 7.40783. CFL: 6.5465.
-------------------------------------------------------------------------

----------------------- Residual Evolution Summary ----------------------
log10[Maximum residual]: -6.26247.
Maximum residual point 385, located at (0.567803, 0.0602454).
-------------------------------------------------------------------------

 Iter    Time(s)     Res[Rho]     Res[RhoE]      CL(Total)      CD(Total)
  552   0.050987    -7.499699     -6.932838       0.243375       0.008141
  553   0.051063    -7.508603     -6.941606       0.243373       0.008141
  554   0.051051    -7.517565     -6.950454       0.243371       0.008141
  555   0.051039    -7.526590     -6.959386       0.243369       0.008141
  556   0.051032    -7.535685     -6.968410       0.243367       0.008141
  557   0.051022    -7.544854     -6.977527       0.243365       0.008141
  558   0.051012    -7.554094     -6.986732       0.243363       0.008141
  559   0.050999    -7.563406     -6.996025       0.243361       0.008140
  560   0.050989    -7.572792     -7.005409       0.243359       0.008140
  561   0.050983    -7.582256     -7.014886       0.243357       0.008140
  562   0.050985    -7.591797     -7.024453       0.243355       0.008140
  563   0.051074    -7.601417     -7.034114       0.243354       0.008140
  564   0.051118    -7.611116     -7.043866       0.243352       0.008140
  565   0.051110    -7.620895     -7.053710       0.243350       0.008140
  566   0.051125    -7.630750     -7.063642       0.243348       0.008140
  567   0.051123    -7.640680     -7.073657       0.243347       0.008140
  568   0.051114    -7.650682     -7.083753       0.243345       0.008140
  569   0.051125    -7.660754     -7.093926       0.243344       0.008140
  570   0.051125    -7.670906     -7.104186       0.243342       0.008140
  571   0.051130    -7.681176     -7.114573       0.243341       0.008140
  572   0.051139    -7.691512     -7.125028       0.243339       0.008140
  573   0.051131    -7.701903     -7.135540       0.243338       0.008140
  574   0.051117    -7.712341     -7.146098       0.243336       0.008140
  575   0.051107    -7.722831     -7.156711       0.243335       0.008140
  576   0.051118    -7.733374     -7.167379       0.243334       0.008140
  577   0.051117    -7.743981     -7.178115       0.243332       0.008140
  578   0.051108    -7.754654     -7.188924       0.243331       0.008139
  579   0.051102    -7.765393     -7.199803       0.243330       0.008139
  580   0.051092    -7.776193     -7.210745       0.243329       0.008139
  581   0.051087    -7.787046     -7.221741       0.243328       0.008139
  582   0.051091    -7.797947     -7.232787       0.243326       0.008139
  583   0.051096    -7.808896     -7.243881       0.243325       0.008139
  584   0.051103    -7.819893     -7.255023       0.243324       0.008139
  585   0.051095    -7.830937     -7.266216       0.243323       0.008139
  586   0.051085    -7.842029     -7.277456       0.243322       0.008139
  587   0.051076    -7.853163     -7.288740       0.243321       0.008139
  588   0.051069    -7.864338     -7.300064       0.243320       0.008139
  589   0.051077    -7.875549     -7.311423       0.243319       0.008139
  590   0.051069    -7.886793     -7.322813       0.243318       0.008139
  591   0.051064    -7.898067     -7.334228       0.243317       0.008139

---------------------- Local Time Stepping Summary ----------------------
MG level: 0 -> Min. DT: 0.000493987. Max. DT: 3.62526. CFL: 10.
MG level: 1 -> Min. DT: 0.000779242. Max. DT: 5.54193. CFL: 8.11871.
MG level: 2 -> Min. DT: 0.00103872. Max. DT: 7.40783. CFL: 6.5465.
-------------------------------------------------------------------------

----------------------- Residual Evolution Summary ----------------------
log10[Maximum residual]: -6.64803.
Maximum residual point 385, located at (0.567803, 0.0602454).
-------------------------------------------------------------------------

 Iter    Time(s)     Res[Rho]     Res[RhoE]      CL(Total)      CD(Total)
  592   0.051067    -7.909363     -7.345662       0.243316       0.008139
  593   0.051056    -7.920677     -7.357106       0.243316       0.008139
  594   0.051048    -7.932003     -7.368557       0.243315       0.008139
  595   0.051038    -7.943336     -7.380008       0.243314       0.008139
  596   0.051031    -7.954672     -7.391453       0.243313       0.008139
  597   0.051021    -7.966005     -7.402885       0.243312       0.008139
  598   0.051012    -7.977330     -7.414300       0.243311       0.008139
  599   0.051001    -7.988642     -7.425690       0.243311       0.008139
  600   0.051004    -7.999935     -7.437051       0.243310       0.008139
  601   0.050999    -8.011206     -7.448378       0.243309       0.008139
  602   0.051003    -8.022451     -7.459667       0.243309       0.008139

-------------------------- File Output Summary --------------------------
Writing comma-separated values (CSV) surface files.
Merging connectivities in the Master node.
Merging coordinates in the Master node.
Merging solution in the Master node.
Writing SU2 native restart file.
Writing Paraview ASCII volume solution file.
Writing Paraview ASCII surface solution file.
Writing the forces breakdown file.
-------------------------------------------------------------------------

  603   0.051270    -8.033666     -7.470915       0.243308       0.008139
  604   0.051263    -8.044848     -7.482117       0.243307       0.008139
  605   0.051251    -8.055994     -7.493272       0.243307       0.008139
  606   0.051239    -8.067103     -7.504377       0.243306       0.008139
  607   0.051237    -8.078172     -7.515432       0.243305       0.008139
  608   0.051236    -8.089200     -7.526434       0.243305       0.008139
  609   0.051244    -8.100186     -7.537382       0.243304       0.008139
  610   0.051240    -8.111128     -7.548277       0.243304       0.008139
  611   0.051234    -8.122027     -7.559118       0.243303       0.008139
  612   0.051231    -8.132881     -7.569904       0.243303       0.008139
  613   0.051223    -8.143691     -7.580637       0.243302       0.008139
  614   0.051218    -8.154456     -7.591317       0.243302       0.008138
  615   0.051208    -8.165177     -7.601944       0.243301       0.008138
  616   0.051199    -8.175855     -7.612520       0.243301       0.008138
  617   0.051192    -8.186490     -7.623046       0.243300       0.008138
  618   0.051192    -8.197082     -7.633523       0.243300       0.008138
  619   0.051182    -8.207633     -7.643953       0.243299       0.008138
  620   0.051175    -8.218145     -7.654337       0.243299       0.008138
  621   0.051180    -8.228617     -7.664677       0.243298       0.008138
  622   0.051226    -8.239052     -7.674976       0.243298       0.008138
  623   0.051247    -8.249451     -7.685234       0.243297       0.008138
  624   0.051252    -8.259815     -7.695454       0.243297       0.008138
  625   0.051243    -8.270146     -7.705638       0.243297       0.008138
  626   0.051242    -8.280445     -7.715787       0.243296       0.008138
  627   0.051237    -8.290714     -7.725905       0.243296       0.008138
  628   0.051235    -8.300954     -7.735992       0.243296       0.008138
  629   0.051227    -8.311167     -7.746050       0.243295       0.008138
  630   0.051259    -8.321354     -7.756082       0.243295       0.008138
  631   0.051317    -8.331517     -7.766089       0.243295       0.008138

---------------------- Local Time Stepping Summary ----------------------
MG level: 0 -> Min. DT: 0.000493985. Max. DT: 3.62526. CFL: 10.
MG level: 1 -> Min. DT: 0.000779241. Max. DT: 5.54193. CFL: 8.11871.
MG level: 2 -> Min. DT: 0.00103872. Max. DT: 7.40783. CFL: 6.5465.
-------------------------------------------------------------------------

----------------------- Residual Evolution Summary ----------------------
log10[Maximum residual]: -7.08177.
Maximum residual point 385, located at (0.567803, 0.0602454).
-------------------------------------------------------------------------

 Iter    Time(s)     Res[Rho]     Res[RhoE]      CL(Total)      CD(Total)
  632   0.051345    -8.341658     -7.776073       0.243294       0.008138
  633   0.051350    -8.351776     -7.786037       0.243294       0.008138
  634   0.051351    -8.361875     -7.795980       0.243294       0.008138
  635   0.051347    -8.371955     -7.805906       0.243293       0.008138
  636   0.051386    -8.382018     -7.815816       0.243293       0.008138
  637   0.051396    -8.392064     -7.825711       0.243293       0.008138
  638   0.051384    -8.402096     -7.835593       0.243293       0.008138
  639   0.051385    -8.412114     -7.845463       0.243292       0.008138
  640   0.051388    -8.422120     -7.855323       0.243292       0.008138
  641   0.051382    -8.432114     -7.865174       0.243292       0.008138
  642   0.051375    -8.442098     -7.875018       0.243291       0.008138
  643   0.051367    -8.452073     -7.884856       0.243291       0.008138
  644   0.051365    -8.462040     -7.894688       0.243291       0.008138
  645   0.051371    -8.472000     -7.904517       0.243291       0.008138
  646   0.051371    -8.481954     -7.914344       0.243291       0.008138
  647   0.051372    -8.491904     -7.924169       0.243290       0.008138
  648   0.051379    -8.501849     -7.933994       0.243290       0.008138
  649   0.051371    -8.511792     -7.943821       0.243290       0.008138
  650   0.051362    -8.521733     -7.953649       0.243290       0.008138
  651   0.051354    -8.531673     -7.963482       0.243289       0.008138
  652   0.051347    -8.541613     -7.973319       0.243289       0.008138
  653   0.051341    -8.551554     -7.983161       0.243289       0.008138
  654   0.051334    -8.561498     -7.993010       0.243289       0.008138
  655   0.051327    -8.571444     -8.002868       0.243289       0.008138
  656   0.051323    -8.581394     -8.012733       0.243289       0.008138
  657   0.051316    -8.591349     -8.022609       0.243288       0.008138
  658   0.051306    -8.601310     -8.032495       0.243288       0.008138
  659   0.051304    -8.611277     -8.042393       0.243288       0.008138
  660   0.051311    -8.621251     -8.052304       0.243288       0.008138
  661   0.051315    -8.631234     -8.062228       0.243288       0.008138
  662   0.051307    -8.641226     -8.072166       0.243288       0.008138
  663   0.051303    -8.651227     -8.082118       0.243287       0.008138
  664   0.051295    -8.661238     -8.092087       0.243287       0.008138
  665   0.051289    -8.671261     -8.102072       0.243287       0.008138
  666   0.051289    -8.681295     -8.112074       0.243287       0.008138
  667   0.051301    -8.691342     -8.122093       0.243287       0.008138
  668   0.051296    -8.701401     -8.132131       0.243287       0.008138
  669   0.051292    -8.711474     -8.142186       0.243287       0.008138
  670   0.051283    -8.721561     -8.152261       0.243286       0.008138
  671   0.051274    -8.731662     -8.162356       0.243286       0.008138

---------------------- Local Time Stepping Summary ----------------------
MG level: 0 -> Min. DT: 0.000493985. Max. DT: 3.62526. CFL: 10.
MG level: 1 -> Min. DT: 0.000779241. Max. DT: 5.54193. CFL: 8.11871.
MG level: 2 -> Min. DT: 0.00103872. Max. DT: 7.40783. CFL: 6.5465.
-------------------------------------------------------------------------

----------------------- Residual Evolution Summary ----------------------
log10[Maximum residual]: -7.49249.
Maximum residual point 385, located at (0.567803, 0.0602454).
-------------------------------------------------------------------------

 Iter    Time(s)     Res[Rho]     Res[RhoE]      CL(Total)      CD(Total)
  672   0.051265    -8.741778     -8.172470       0.243286       0.008138
  673   0.051257    -8.751909     -8.182603       0.243286       0.008138
  674   0.051248    -8.762056     -8.192757       0.243286       0.008138
  675   0.051250    -8.772218     -8.202932       0.243286       0.008138
  676   0.051246    -8.782396     -8.213126       0.243286       0.008138
  677   0.051246    -8.792591     -8.223342       0.243286       0.008138
  678   0.051238    -8.802802     -8.233577       0.243285       0.008138
  679   0.051249    -8.813029     -8.243833       0.243285       0.008138
  680   0.051258    -8.823273     -8.254110       0.243285       0.008138
  681   0.051252    -8.833533     -8.264406       0.243285       0.008138
  682   0.051244    -8.843810     -8.274723       0.243285       0.008138
  683   0.051237    -8.854103     -8.285059       0.243285       0.008138
  684   0.051229    -8.864413     -8.295414       0.243285       0.008138
  685   0.051221    -8.874739     -8.305788       0.243285       0.008138
  686   0.051222    -8.885080     -8.316181       0.243285       0.008138
  687   0.051232    -8.895438     -8.326593       0.243285       0.008138
  688   0.051238    -8.905811     -8.337021       0.243285       0.008138
  689   0.051244    -8.916199     -8.347467       0.243284       0.008138
  690   0.051237    -8.926601     -8.357930       0.243284       0.008138
  691   0.051231    -8.937018     -8.368408       0.243284       0.008138
  692   0.051224    -8.947449     -8.378902       0.243284       0.008138
  693   0.051216    -8.957893     -8.389410       0.243284       0.008138
  694   0.051213    -8.968351     -8.399932       0.243284       0.008138
  695   0.051210    -8.978821     -8.410468       0.243284       0.008138
  696   0.051206    -8.989303     -8.421016       0.243284       0.008138
  697   0.051205    -8.999796     -8.431576       0.243284       0.008138
  698   0.051211    -9.010300     -8.442147       0.243284       0.008138
  699   0.051212    -9.020814     -8.452728       0.243284       0.008138
  700   0.051228    -9.031338     -8.463318       0.243284       0.008138
  701   0.051227    -9.041871     -8.473917       0.243284       0.008138
  702   0.051220    -9.052412     -8.484524       0.243284       0.008138
  703   0.051213    -9.062962     -8.495138       0.243283       0.008138
  704   0.051208    -9.073518     -8.505758       0.243283       0.008138
  705   0.051204    -9.084081     -8.516384       0.243283       0.008138
  706   0.051201    -9.094649     -8.527014       0.243283       0.008138
  707   0.051200    -9.105223     -8.537648       0.243283       0.008138
  708   0.051194    -9.115802     -8.548286       0.243283       0.008138
  709   0.051189    -9.126384     -8.558925       0.243283       0.008138
  710   0.051185    -9.136970     -8.569566       0.243283       0.008138
  711   0.051179    -9.147559     -8.580209       0.243283       0.008138

---------------------- Local Time Stepping Summary ----------------------
MG level: 0 -> Min. DT: 0.000493985. Max. DT: 3.62526. CFL: 10.
MG level: 1 -> Min. DT: 0.000779241. Max. DT: 5.54193. CFL: 8.11871.
MG level: 2 -> Min. DT: 0.00103872. Max. DT: 7.40783. CFL: 6.5465.
-------------------------------------------------------------------------

----------------------- Residual Evolution Summary ----------------------
log10[Maximum residual]: -7.90546.
Maximum residual point 385, located at (0.567803, 0.0602454).
-------------------------------------------------------------------------

 Iter    Time(s)     Res[Rho]     Res[RhoE]      CL(Total)      CD(Total)
  712   0.051171    -9.158149     -8.590851       0.243283       0.008138
  713   0.051165    -9.168741     -8.601493       0.243283       0.008138
  714   0.051157    -9.179335     -8.612133       0.243283       0.008138
  715   0.051154    -9.189928     -8.622772       0.243283       0.008138
  716   0.051149    -9.200522     -8.633408       0.243283       0.008138
  717   0.051141    -9.211115     -8.644042       0.243283       0.008138
  718   0.051138    -9.221707     -8.654672       0.243283       0.008138
  719   0.051140    -9.232297     -8.665298       0.243283       0.008138
  720   0.051143    -9.242886     -8.675919       0.243283       0.008138
  721   0.051141    -9.253472     -8.686536       0.243283       0.008138
  722   0.051134    -9.264055     -8.697147       0.243283       0.008138
  723   0.051128    -9.274635     -8.707752       0.243283       0.008138
  724   0.051122    -9.285211     -8.718351       0.243282       0.008138
  725   0.051120    -9.295783     -8.728944       0.243282       0.008138
  726   0.051116    -9.306351     -8.739529       0.243282       0.008138
  727   0.051124    -9.316915     -8.750108       0.243282       0.008138
  728   0.051126    -9.327474     -8.760680       0.243282       0.008138
  729   0.051162    -9.338028     -8.771244       0.243282       0.008138
  730   0.051207    -9.348577     -8.781800       0.243282       0.008138
  731   0.051237    -9.359121     -8.792349       0.243282       0.008138
  732   0.051255    -9.369659     -8.802889       0.243282       0.008138
  733   0.051259    -9.380192     -8.813422       0.243282       0.008138
  734   0.051259    -9.390719     -8.823947       0.243282       0.008138
  735   0.051267    -9.401240     -8.834463       0.243282       0.008138
  736   0.051266    -9.411755     -8.844972       0.243282       0.008138
  737   0.051259    -9.422265     -8.855473       0.243282       0.008138
  738   0.051270    -9.432768     -8.865965       0.243282       0.008138
  739   0.051274    -9.443266     -8.876450       0.243282       0.008138
  740   0.051272    -9.453758     -8.886927       0.243282       0.008138
  741   0.051266    -9.464244     -8.897396       0.243282       0.008138
  742   0.051260    -9.474724     -8.907858       0.243282       0.008138
  743   0.051253    -9.485199     -8.918312       0.243282       0.008138
  744   0.051252    -9.495668     -8.928759       0.243282       0.008138
  745   0.051254    -9.506132     -8.939200       0.243282       0.008138
  746   0.051258    -9.516590     -8.949633       0.243282       0.008138
  747   0.051252    -9.527043     -8.960060       0.243282       0.008138
  748   0.051249    -9.537491     -8.970480       0.243282       0.008138
  749   0.051244    -9.547935     -8.980894       0.243282       0.008138
  750   0.051238    -9.558373     -8.991303       0.243282       0.008138
  751   0.051236    -9.568807     -9.001705       0.243282       0.008138

---------------------- Local Time Stepping Summary ----------------------
MG level: 0 -> Min. DT: 0.000493985. Max. DT: 3.62526. CFL: 10.
MG level: 1 -> Min. DT: 0.000779241. Max. DT: 5.54193. CFL: 8.11871.
MG level: 2 -> Min. DT: 0.00103872. Max. DT: 7.40783. CFL: 6.5465.
-------------------------------------------------------------------------

----------------------- Residual Evolution Summary ----------------------
log10[Maximum residual]: -8.32525.
Maximum residual point 385, located at (0.567803, 0.0602454).
-------------------------------------------------------------------------

 Iter    Time(s)     Res[Rho]     Res[RhoE]      CL(Total)      CD(Total)
  752   0.051232    -9.579236     -9.012103       0.243282       0.008138
  753   0.051229    -9.589661     -9.022495       0.243282       0.008138
  754   0.051223    -9.600082     -9.032883       0.243282       0.008138
  755   0.051219    -9.610499     -9.043266       0.243282       0.008138
  756   0.051216    -9.620913     -9.053644       0.243282       0.008138
  757   0.051211    -9.631323     -9.064019       0.243282       0.008138
  758   0.051217    -9.641730     -9.074390       0.243282       0.008138
  759   0.051217    -9.652133     -9.084758       0.243282       0.008138
  760   0.051212    -9.662534     -9.095123       0.243282       0.008138
  761   0.051207    -9.672932     -9.105484       0.243282       0.008138
  762   0.051203    -9.683328     -9.115844       0.243282       0.008138
  763   0.051204    -9.693721     -9.126201       0.243282       0.008138
  764   0.051201    -9.704113     -9.136555       0.243282       0.008138
  765   0.051210    -9.714502     -9.146908       0.243282       0.008138
  766   0.051217    -9.724890     -9.157260       0.243282       0.008138
  767   0.051212    -9.735276     -9.167610       0.243282       0.008138
  768   0.051208    -9.745660     -9.177959       0.243282       0.008138
  769   0.051201    -9.756044     -9.188307       0.243281       0.008138
  770   0.051200    -9.766426     -9.198655       0.243281       0.008138
  771   0.051197    -9.776808     -9.209002       0.243281       0.008138
  772   0.051190    -9.787189     -9.219349       0.243281       0.008138
  773   0.051185    -9.797569     -9.229697       0.243281       0.008138
  774   0.051184    -9.807949     -9.240044       0.243281       0.008138
  775   0.051185    -9.818329     -9.250391       0.243281       0.008138
  776   0.051179    -9.828709     -9.260739       0.243281       0.008138
  777   0.051175    -9.839088     -9.271088       0.243281       0.008138
  778   0.051186    -9.849468     -9.281438       0.243281       0.008138
  779   0.051185    -9.859847     -9.291788       0.243281       0.008138
  780   0.051177    -9.870227     -9.302139       0.243281       0.008138
  781   0.051172    -9.880607     -9.312492       0.243281       0.008138
  782   0.051166    -9.890988     -9.322846       0.243281       0.008138
  783   0.051161    -9.901369     -9.333200       0.243281       0.008138
  784   0.051158    -9.911751     -9.343557       0.243281       0.008138
  785   0.051155    -9.922133     -9.353915       0.243281       0.008138
  786   0.051156    -9.932516     -9.364274       0.243281       0.008138
  787   0.051152    -9.942900     -9.374635       0.243281       0.008138
  788   0.051149    -9.953284     -9.384997       0.243281       0.008138
  789   0.051143    -9.963669     -9.395361       0.243281       0.008138
  790   0.051147    -9.974055     -9.405726       0.243281       0.008138
  791   0.051144    -9.984442     -9.416093       0.243281       0.008138

---------------------- Local Time Stepping Summary ----------------------
MG level: 0 -> Min. DT: 0.000493985. Max. DT: 3.62526. CFL: 10.
MG level: 1 -> Min. DT: 0.000779241. Max. DT: 5.54193. CFL: 8.11871.
MG level: 2 -> Min. DT: 0.00103872. Max. DT: 7.40783. CFL: 6.5465.
-------------------------------------------------------------------------

----------------------- Residual Evolution Summary ----------------------
log10[Maximum residual]: -8.74029.
Maximum residual point 385, located at (0.567803, 0.0602454).
-------------------------------------------------------------------------

 Iter    Time(s)     Res[Rho]     Res[RhoE]      CL(Total)      CD(Total)
  792   0.051139    -9.994829     -9.426462       0.243281       0.008138
  793   0.051134   -10.005217     -9.436832       0.243281       0.008138

-------------------------- File Output Summary --------------------------
Writing comma-separated values (CSV) surface files.
Merging connectivities in the Master node.
Merging coordinates in the Master node.
Merging solution in the Master node.
Writing SU2 native restart file.
Writing Paraview ASCII volume solution file.
Writing Paraview ASCII surface solution file.
Writing the forces breakdown file.
-------------------------------------------------------------------------

History file, closed.

------------------------- Solver Postprocessing -------------------------
Deleted CNumerics container.
Deleted CIntegration container.
Deleted CSolver container.
Deleted CIteration container.
Deleted CInterpolator container.
Deleted CTransfer container.
Deleted CGeometry container.
Deleted CFreeFormDefBox class.
Deleted CSurfaceMovement class.
Deleted CVolumetricMovement class.
Deleted CConfig container.
Deleted COutput class.
-------------------------------------------------------------------------

Completed in 22.707069 seconds on 1 core.

------------------------- Exit Success (SU2_CFD) ------------------------

