
-------------------------------------------------------------------------
|    ___ _   _ ___                                                      |
|   / __| | | |_  )   Release 5.0.0  "Raven"                            |
|   \__ \ |_| |/ /                                                      |
|   |___/\___//___|   Suite (Computational Fluid Dynamics Code)         |
|                                                                       |
-------------------------------------------------------------------------
| SU2 Original Developers: Dr. Francisco D. Palacios.                   |
|                          Dr. Thomas D. Economon.                      |
-------------------------------------------------------------------------
| SU2 Developers:                                                       |
| - Prof. Juan J. Alonso's group at Stanford University.                |
| - Prof. Piero Colonna's group at Delft University of Technology.      |
| - Prof. Nicolas R. Gauger's group at Kaiserslautern U. of Technology. |
| - Prof. Alberto Guardone's group at Polytechnic University of Milan.  |
| - Prof. Rafael Palacios' group at Imperial College London.            |
| - Prof. Edwin van der Weide's group at the University of Twente.      |
| - Prof. Vincent Terrapon's group at the University of Liege.          |
-------------------------------------------------------------------------
| Copyright (C) 2012-2017 SU2, the open-source CFD code.                |
|                                                                       |
| SU2 is free software; you can redistribute it and/or                  |
| modify it under the terms of the GNU Lesser General Public            |
| License as published by the Free Software Foundation; either          |
| version 2.1 of the License, or (at your option) any later version.    |
|                                                                       |
| SU2 is distributed in the hope that it will be useful,                |
| but WITHOUT ANY WARRANTY; without even the implied warranty of        |
| MERCHANTABILITY or FITNESS FOR A PARTICULAR PURPOSE. See the GNU      |
| Lesser General Public License for more details.                       |
|                                                                       |
| You should have received a copy of the GNU Lesser General Public      |
| License along with SU2. If not, see <http://www.gnu.org/licenses/>.   |
-------------------------------------------------------------------------

------------------------ Physical Case Definition -----------------------
Compressible Euler equations.
Mach number: 0.8.
Angle of attack (AoA): 1.25 deg, and angle of sideslip (AoS): 0 deg.
Read flow solution from: solution_flow.dat.
Non-Dimensional simulation (P=1.0, Rho=1.0, T=1.0 at the farfield).
The reference length/area (force coefficient) is 1.
The reference length (moment computation) is 1.
Reference origin (moment computation) is (0.25, 0, 0).
Surface(s) where the force coefficients are evaluated: airfoil.
Surface(s) plotted in the output file: airfoil.
Surface(s) affected by the design variables: airfoil.
Input mesh file name: mesh_deform.su2

---------------------- Space Numerical Integration ----------------------
Jameson-Schmidt-Turkel scheme for the flow inviscid terms.
JST viscous coefficients (1st, 2nd & 4th): 0.15, 0.5, 0.02.
The method includes a grid stretching correction (p = 0.3).
Second order integration.
Gradient computation using Green-Gauss theorem.

---------------------- Time Numerical Integration -----------------------
Local time stepping (steady state simulation).
Euler implicit method for the flow equations.
V Multigrid Cycle, with 2 multigrid levels.
Damping factor for the residual restriction: 1.
Damping factor for the correction prolongation: 1.
No CFL adaptation.
Multigrid Level:                       0     1     2
Courant-Friedrichs-Lewy number:       10
MG PreSmooth coefficients:             1     2     3
MG PostSmooth coefficients:            0     0     0
MG CorrecSmooth coefficients:          0     0     0

------------------------- Convergence Criteria --------------------------
Maximum number of iterations: 1000.
Reduce the density residual 6 orders of magnitude.
The minimum bound for the density residual is 10^(-10).
Start convergence criteria at iteration 10.

-------------------------- Output Information ---------------------------
Writing a flow solution every 250 iterations.
Writing the convergence history every 1 iterations.
The output file format is Paraview ASCII (.vtk).
Convergence history file name: history_direct.
Forces breakdown file name: forces_breakdown.dat.
Surface flow coefficients file name: surface_flow.
Flow variables file name: flow.
Restart flow file name: restart_flow.dat.

------------------- Config File Boundary Information --------------------
Euler wall boundary marker(s): airfoil.
Far-field boundary marker(s): farfield.

---------------------- Read Grid File Information -----------------------
Two dimensional problem.
5233 points.
2 surface markers.
200 boundary elements in index 0 (Marker = airfoil).
50 boundary elements in index 1 (Marker = farfield).
10216 triangles.

------------------------- Geometry Preprocessing ------------------------
Setting point connectivity.
Renumbering points (Reverse Cuthill McKee Ordering).
Recomputing point connectivity.
Setting element connectivity.
Checking the numerical grid orientation.
Identifying edges and vertices.
Computing centers of gravity.
Setting the control volume structure.
Area of the computational grid: 1.25e+03.
Searching for the closest normal neighbors to the surfaces.
Compute the surface curvature.
Max K: 7.84e+03. Mean K: 36.9. Standard deviation K: 495.
Checking for periodicity.
Setting the multigrid structure.
MG level: 0 -> CVs: 5233. Agglomeration rate 1/1.00. CFL 10.
MG level: 1 -> CVs: 1533. Agglomeration rate 1/3.41. CFL 8.12.
MG level: 2 -> CVs: 443. Agglomeration rate 1/3.46. CFL 6.55.
Computing wall distances.
Wetted area = 2.03 m.
Area projection in the x-plane = 0.0906 m, y-plane = 1 m.

------------------------- Driver information --------------------------
A Fluid driver has been instantiated.

------------------------ Iteration Preprocessing ------------------------
Zone 1: Euler/Navier-Stokes/RANS flow iteration.

------------------------- Solver Preprocessing --------------------------
Inviscid flow: Computing density based on free-stream
temperature and pressure using the ideal gas law.
Force coefficients computed using free-stream values.
-- Input conditions:
Fluid Model: STANDARD_AIR 
Specific gas constant: 287.058 N.m/kg.K.
Specific gas constant (non-dim): 1
Specific Heat Ratio: 1.4
Free-stream static pressure: 101325 Pa.
Free-stream total pressure: 154454 Pa.
Free-stream temperature: 288.15 K.
Free-stream density: 1.22498 kg/m^3.
Free-stream velocity: (272.173, 5.93883) m/s. Magnitude: 272.238 m/s (529.186 KTS).
Free-stream total energy per unit mass: 243846 m^2/s^2.
-- Reference values:
Reference specific gas constant: 287.058 N.m/kg.K.
Reference pressure: 101325 Pa.
Reference temperature: 288.15 K.
Reference density: 1.22498 kg/m^3.
Reference velocity: 287.603 m/s.
Reference energy per unit mass: 82715.8 m^2/s^2.
-- Resulting non-dimensional state:
Mach number (non-dim): 0.8
Specific gas constant (non-dim): 1
Free-stream temperature (non-dim): 1
Free-stream pressure (non-dim): 1
Free-stream density (non-dim): 1
Free-stream velocity (non-dim): (0.946348, 0.0206494). Magnitude: 0.946573
Free-stream total energy per unit mass (non-dim): 2.948

Initialize Jacobian structure (Euler). MG level: 0.
Initialize Jacobian structure (Euler). MG level: 1.
Initialize Jacobian structure (Euler). MG level: 2.

----------------- Integration and Numerics Preprocessing ----------------
Integration Preprocessing.
Numerics Preprocessing.

------------------------------ Begin Solver -----------------------------

---------------------- Local Time Stepping Summary ----------------------
MG level: 0 -> Min. DT: 0.000490888. Max. DT: 3.63396. CFL: 10.
MG level: 1 -> Min. DT: 0.000778471. Max. DT: 5.55365. CFL: 8.11871.
MG level: 2 -> Min. DT: 0.00104554. Max. DT: 7.42509. CFL: 6.5465.
-------------------------------------------------------------------------

----------------------- Residual Evolution Summary ----------------------
log10[Maximum residual]: -3.97446.
Maximum residual point 117, located at (0.0744, 0.025962).
-------------------------------------------------------------------------

 Iter    Time(s)     Res[Rho]     Res[RhoE]      CL(Total)      CD(Total)
 1581   0.055410    -5.045755     -4.449376       0.032522       0.000635
 1582   0.052921    -5.152120     -4.551948       0.031741       0.000159
 1583   0.051444    -5.160389     -4.565350       0.031095      -0.000070
 1584   0.050624    -5.154319     -4.558351       0.030563      -0.000113
 1585   0.050008    -5.126318     -4.530625       0.030065      -0.000095
 1586   0.049589    -5.094860     -4.499023       0.029646      -0.000052
 1587   0.049383    -5.085923     -4.492331       0.029288      -0.000016
 1588   0.049201    -5.144309     -4.564320       0.028957      -0.000019
 1589   0.049019    -5.230293     -4.677797       0.028632       0.000018
 1590   0.049928    -5.224457     -4.669339       0.028345       0.000013
 1591   0.051015    -5.291114     -4.754330       0.028165       0.000124
 1592   0.051607    -5.251718     -4.702742       0.028088       0.000154
 1593   0.051662    -5.288059     -4.745012       0.028044       0.000150
 1594   0.051665    -5.250152     -4.694664       0.028059       0.000227
 1595   0.051708    -5.224642     -4.660230       0.028117       0.000284
 1596   0.051579    -5.197453     -4.624798       0.028238       0.000331
 1597   0.051580    -5.173783     -4.594504       0.028396       0.000368
 1598   0.051446    -5.158340     -4.574153       0.028571       0.000403
 1599   0.051256    -5.148963     -4.561012       0.028757       0.000433
 1600   0.051088    -5.146331     -4.555765       0.028951       0.000458
 1601   0.050911    -5.153448     -4.561901       0.029149       0.000479
 1602   0.050861    -5.175679     -4.586159       0.029350       0.000497
 1603   0.050735    -5.222307     -4.641047       0.029557       0.000514
 1604   0.050627    -5.303407     -4.743064       0.029764       0.000532
 1605   0.050511    -5.394308     -4.862648       0.029957       0.000583
 1606   0.050495    -5.419683     -4.885152       0.030199       0.000578
 1607   0.050385    -5.450031     -4.913171       0.030420       0.000601
 1608   0.050289    -5.446519     -4.900371       0.030652       0.000607
 1609   0.050227    -5.454507     -4.906342       0.030874       0.000608
 1610   0.050217    -5.455519     -4.905358       0.031091       0.000606
 1611   0.050156    -5.462218     -4.912255       0.031297       0.000597
 1612   0.050114    -5.463924     -4.912385       0.031495       0.000587
 1613   0.050103    -5.468413     -4.915762       0.031683       0.000573
 1614   0.050067    -5.478463     -4.926053       0.031862       0.000558
 1615   0.050045    -5.496009     -4.945719       0.032033       0.000542
 1616   0.050052    -5.520885     -4.974806       0.032196       0.000526
 1617   0.050012    -5.553194     -5.014097       0.032350       0.000508
 1618   0.049957    -5.588857     -5.058907       0.032491       0.000482
 1619   0.049906    -5.608695     -5.082323       0.032622       0.000517
 1620   0.049864    -5.617591     -5.095070       0.032760       0.000446

---------------------- Local Time Stepping Summary ----------------------
MG level: 0 -> Min. DT: 0.000490601. Max. DT: 3.63396. CFL: 10.
MG level: 1 -> Min. DT: 0.000777235. Max. DT: 5.55366. CFL: 8.11871.
MG level: 2 -> Min. DT: 0.00104447. Max. DT: 7.42509. CFL: 6.5465.
-------------------------------------------------------------------------

----------------------- Residual Evolution Summary ----------------------
log10[Maximum residual]: -4.50881.
Maximum residual point 405, located at (0.645018, 0.0515064).
-------------------------------------------------------------------------

 Iter    Time(s)     Res[Rho]     Res[RhoE]      CL(Total)      CD(Total)
 1621   0.049817    -5.625091     -5.101172       0.032858       0.000459
 1622   0.049770    -5.610588     -5.078748       0.032944       0.000433
 1623   0.049776    -5.610348     -5.076721       0.033021       0.000425
 1624   0.049737    -5.602728     -5.065286       0.033084       0.000411
 1625   0.049702    -5.612836     -5.078088       0.033137       0.000405
 1626   0.049658    -5.630799     -5.101254       0.033186       0.000403
 1627   0.049621    -5.640012     -5.111811       0.033211       0.000332
 1628   0.049586    -5.625619     -5.091482       0.033210       0.000395
 1629   0.049577    -5.583167     -5.035415       0.033204       0.000356
 1630   0.049548    -5.606637     -5.069487       0.033200       0.000355
 1631   0.049526    -5.663094     -5.148841       0.033192       0.000358
 1632   0.049506    -5.678616     -5.160619       0.033172       0.000359
 1633   0.049472    -5.686958     -5.162580       0.033148       0.000363
 1634   0.049436    -5.682723     -5.151696       0.033122       0.000362
 1635   0.049418    -5.690365     -5.161618       0.033088       0.000358
 1636   0.049392    -5.701556     -5.173317       0.033051       0.000359
 1637   0.049413    -5.693334     -5.156828       0.033010       0.000360
 1638   0.049416    -5.696118     -5.156471       0.032967       0.000362
 1639   0.049385    -5.697940     -5.156164       0.032923       0.000364
 1640   0.049360    -5.708420     -5.167540       0.032876       0.000367
 1641   0.049335    -5.723644     -5.184925       0.032827       0.000371
 1642   0.049324    -5.745216     -5.210358       0.032776       0.000374
 1643   0.049301    -5.769679     -5.239231       0.032725       0.000378
 1644   0.049305    -5.795508     -5.269569       0.032674       0.000381
 1645   0.049293    -5.820362     -5.298258       0.032624       0.000384
 1646   0.049267    -5.841182     -5.321088       0.032576       0.000386
 1647   0.049237    -5.853119     -5.331294       0.032531       0.000386
 1648   0.049246    -5.852640     -5.325255       0.032488       0.000388
 1649   0.049222    -5.853436     -5.322021       0.032449       0.000387
 1650   0.049202    -5.862003     -5.332485       0.032413       0.000389
 1651   0.049180    -5.880466     -5.356321       0.032380       0.000391
 1652   0.049164    -5.897255     -5.375366       0.032353       0.000393
 1653   0.049222    -5.903492     -5.377401       0.032329       0.000395
 1654   0.049252    -5.906120     -5.374875       0.032309       0.000396
 1655   0.049243    -5.910153     -5.375274       0.032292       0.000398
 1656   0.049265    -5.915062     -5.377416       0.032279       0.000400
 1657   0.049274    -5.923611     -5.384526       0.032269       0.000401
 1658   0.049280    -5.935229     -5.395587       0.032261       0.000403
 1659   0.049259    -5.949167     -5.409484       0.032255       0.000404
 1660   0.049250    -5.964607     -5.425222       0.032252       0.000405

---------------------- Local Time Stepping Summary ----------------------
MG level: 0 -> Min. DT: 0.00049066. Max. DT: 3.63396. CFL: 10.
MG level: 1 -> Min. DT: 0.000777151. Max. DT: 5.55366. CFL: 8.11871.
MG level: 2 -> Min. DT: 0.00104442. Max. DT: 7.4251. CFL: 6.5465.
-------------------------------------------------------------------------

----------------------- Residual Evolution Summary ----------------------
log10[Maximum residual]: -4.74204.
Maximum residual point 616, located at (0.638676, 0.0674311).
-------------------------------------------------------------------------

 Iter    Time(s)     Res[Rho]     Res[RhoE]      CL(Total)      CD(Total)
 1661   0.049235    -5.980900     -5.442085       0.032251       0.000406
 1662   0.049225    -5.997838     -5.459904       0.032251       0.000408
 1663   0.049213    -6.015656     -5.479084       0.032253       0.000408
 1664   0.049195    -6.034616     -5.500007       0.032256       0.000409
 1665   0.049193    -6.054797     -5.522783       0.032260       0.000410
 1666   0.049177    -6.076128     -5.547279       0.032265       0.000411
 1667   0.049160    -6.098390     -5.573144       0.032270       0.000411
 1668   0.049160    -6.121607     -5.600327       0.032276       0.000411
 1669   0.049153    -6.145740     -5.628726       0.032283       0.000411
 1670   0.049140    -6.170597     -5.657939       0.032290       0.000411
 1671   0.049123    -6.195361     -5.686733       0.032297       0.000411
 1672   0.049107    -6.219327     -5.714048       0.032305       0.000410
 1673   0.049112    -6.240555     -5.737162       0.032312       0.000410
 1674   0.049122    -6.249110     -5.741917       0.032320       0.000411
 1675   0.049129    -6.241645     -5.724305       0.032329       0.000408
 1676   0.049120    -6.224086     -5.695358       0.032337       0.000413
 1677   0.049104    -6.269036     -5.758835       0.032348       0.000407
 1678   0.049112    -6.270427     -5.755332       0.032355       0.000407
 1679   0.049132    -6.264337     -5.741338       0.032363       0.000408
 1680   0.049128    -6.272704     -5.746669       0.032370       0.000407
 1681   0.049113    -6.280995     -5.752058       0.032378       0.000407
 1682   0.049100    -6.299834     -5.772693       0.032385       0.000407
 1683   0.049098    -6.323420     -5.800034       0.032391       0.000407
 1684   0.049090    -6.349451     -5.830247       0.032397       0.000407
 1685   0.049085    -6.374351     -5.857913       0.032402       0.000407
 1686   0.049078    -6.393495     -5.876896       0.032407       0.000406
 1687   0.049095    -6.410282     -5.892648       0.032410       0.000406
 1688   0.049094    -6.424567     -5.905236       0.032413       0.000406
 1689   0.049083    -6.437188     -5.915898       0.032415       0.000406
 1690   0.049069    -6.450584     -5.928188       0.032417       0.000405
 1691   0.049066    -6.466436     -5.944244       0.032418       0.000405
 1692   0.049163    -6.484613     -5.963694       0.032419       0.000405
 1693   0.049218    -6.504487     -5.985393       0.032419       0.000405
 1694   0.049326    -6.524983     -6.007717       0.032419       0.000405
 1695   0.049330    -6.545026     -6.029206       0.032419       0.000405
 1696   0.049345    -6.563646     -6.048570       0.032418       0.000405
 1697   0.049357    -6.577606     -6.061376       0.032418       0.000404
 1698   0.049350    -6.584203     -6.065568       0.032417       0.000404
 1699   0.049332    -6.586999     -6.065229       0.032417       0.000404
 1700   0.049316    -6.601436     -6.082019       0.032416       0.000404

---------------------- Local Time Stepping Summary ----------------------
MG level: 0 -> Min. DT: 0.000490664. Max. DT: 3.63396. CFL: 10.
MG level: 1 -> Min. DT: 0.000777141. Max. DT: 5.55366. CFL: 8.11871.
MG level: 2 -> Min. DT: 0.0010444. Max. DT: 7.4251. CFL: 6.5465.
-------------------------------------------------------------------------

----------------------- Residual Evolution Summary ----------------------
log10[Maximum residual]: -5.27036.
Maximum residual point 261, located at (0.583328, 0.0560967).
-------------------------------------------------------------------------

 Iter    Time(s)     Res[Rho]     Res[RhoE]      CL(Total)      CD(Total)
 1701   0.049303    -6.612363     -6.092053       0.032417       0.000404
 1702   0.049292    -6.611660     -6.085109       0.032417       0.000404
 1703   0.049284    -6.617525     -6.087971       0.032418       0.000404
 1704   0.049280    -6.623419     -6.091429       0.032419       0.000404
 1705   0.049283    -6.630289     -6.096281       0.032421       0.000404
 1706   0.049294    -6.637934     -6.102093       0.032423       0.000404
 1707   0.049281    -6.646070     -6.108503       0.032425       0.000404
 1708   0.049270    -6.654361     -6.115075       0.032427       0.000404
 1709   0.049265    -6.662791     -6.121803       0.032430       0.000404
 1710   0.049254    -6.671513     -6.128922       0.032432       0.000404
 1711   0.049246    -6.680813     -6.136820       0.032435       0.000404
 1712   0.049234    -6.691019     -6.145904       0.032437       0.000404
 1713   0.049226    -6.702388     -6.156500       0.032440       0.000404
 1714   0.049228    -6.715205     -6.168975       0.032443       0.000404
 1715   0.049220    -6.729757     -6.183696       0.032445       0.000404
 1716   0.049207    -6.746305     -6.201011       0.032448       0.000404
 1717   0.049197    -6.765010     -6.221151       0.032450       0.000404
 1718   0.049189    -6.785919     -6.244189       0.032453       0.000404
 1719   0.049206    -6.809012     -6.270110       0.032455       0.000404
 1720   0.049203    -6.834208     -6.298827       0.032457       0.000404
 1721   0.049203    -6.861331     -6.330118       0.032459       0.000404
 1722   0.049193    -6.890160     -6.363664       0.032461       0.000403
 1723   0.049186    -6.920367     -6.398976       0.032463       0.000403
 1724   0.049178    -6.951541     -6.435425       0.032464       0.000403
 1725   0.049167    -6.983429     -6.472588       0.032466       0.000403
 1726   0.049160    -7.015692     -6.509969       0.032467       0.000403
 1727   0.049171    -7.047631     -6.546543       0.032469       0.000403
 1728   0.049171    -7.076179     -6.577880       0.032470       0.000403
 1729   0.049162    -7.086640     -6.583367       0.032471       0.000403
 1730   0.049149    -7.084527     -6.571813       0.032473       0.000402
 1731   0.049137    -7.113211     -6.608318       0.032473       0.000403
 1732   0.049128    -7.127217     -6.622472       0.032475       0.000402
 1733   0.049123    -7.150709     -6.646985       0.032476       0.000402
 1734   0.049115    -7.166341     -6.659981       0.032476       0.000402
 1735   0.049131    -7.172552     -6.659536       0.032477       0.000402
 1736   0.049123    -7.170712     -6.649603       0.032478       0.000402
 1737   0.049120    -7.187250     -6.667552       0.032478       0.000402
 1738   0.049112    -7.208487     -6.692112       0.032479       0.000402
 1739   0.049109    -7.231241     -6.717784       0.032479       0.000402
 1740   0.049108    -7.250181     -6.737250       0.032479       0.000402

---------------------- Local Time Stepping Summary ----------------------
MG level: 0 -> Min. DT: 0.000490641. Max. DT: 3.63396. CFL: 10.
MG level: 1 -> Min. DT: 0.000777133. Max. DT: 5.55366. CFL: 8.11871.
MG level: 2 -> Min. DT: 0.0010444. Max. DT: 7.42509. CFL: 6.5465.
-------------------------------------------------------------------------

----------------------- Residual Evolution Summary ----------------------
log10[Maximum residual]: -5.96363.
Maximum residual point 407, located at (0.55191, 0.0576867).
-------------------------------------------------------------------------

 Iter    Time(s)     Res[Rho]     Res[RhoE]      CL(Total)      CD(Total)
 1741   0.049100    -7.266370     -6.752418       0.032479       0.000402
 1742   0.049092    -7.278108     -6.761340       0.032479       0.000402
 1743   0.049084    -7.284873     -6.763872       0.032479       0.000402
 1744   0.049078    -7.291663     -6.767216       0.032479       0.000402
 1745   0.049068    -7.298367     -6.770977       0.032478       0.000402
 1746   0.049060    -7.306202     -6.776638       0.032478       0.000402
 1747   0.049052    -7.315423     -6.784408       0.032478       0.000402
 1748   0.049047    -7.326089     -6.794210       0.032477       0.000402
 1749   0.049037    -7.338112     -6.805798       0.032477       0.000402
 1750   0.049035    -7.351329     -6.818861       0.032476       0.000402
 1751   0.049027    -7.365620     -6.833196       0.032475       0.000402
 1752   0.049022    -7.380922     -6.848717       0.032475       0.000402
 1753   0.049027    -7.397253     -6.865479       0.032474       0.000402
 1754   0.049024    -7.414735     -6.883682       0.032473       0.000402
 1755   0.049023    -7.433617     -6.903685       0.032473       0.000402
 1756   0.049017    -7.454239     -6.925969       0.032472       0.000402
 1757   0.049014    -7.477037     -6.951147       0.032472       0.000402
 1758   0.049015    -7.502490     -6.979911       0.032471       0.000402
 1759   0.049014    -7.530991     -7.012850       0.032470       0.000402
 1760   0.049031    -7.562366     -7.049756       0.032470       0.000402
 1761   0.049040    -7.594148     -7.087039       0.032469       0.000402
 1762   0.049037    -7.616809     -7.111964       0.032469       0.000402
 1763   0.049031    -7.635115     -7.129637       0.032468       0.000402
 1764   0.049024    -7.643178     -7.131534       0.032468       0.000402
 1765   0.049018    -7.643123     -7.123858       0.032468       0.000402
 1766   0.049011    -7.646455     -7.122789       0.032468       0.000402
 1767   0.049005    -7.652179     -7.125833       0.032467       0.000402
 1768   0.049000    -7.661244     -7.133510       0.032467       0.000402
 1769   0.049000    -7.673632     -7.145526       0.032467       0.000402
 1770   0.048995    -7.687651     -7.159485       0.032467       0.000402
 1771   0.048989    -7.701963     -7.173608       0.032467       0.000402
 1772   0.048983    -7.715745     -7.186908       0.032467       0.000402
 1773   0.048977    -7.728596     -7.198967       0.032467       0.000402
 1774   0.048969    -7.740591     -7.209981       0.032467       0.000402
 1775   0.048962    -7.751995     -7.220348       0.032467       0.000402
 1776   0.048970    -7.763029     -7.230368       0.032467       0.000402
 1777   0.048971    -7.773803     -7.240175       0.032467       0.000402
 1778   0.048971    -7.784329     -7.249771       0.032467       0.000402
 1779   0.048975    -7.794592     -7.259127       0.032467       0.000402
 1780   0.048982    -7.804600     -7.268250       0.032467       0.000402

---------------------- Local Time Stepping Summary ----------------------
MG level: 0 -> Min. DT: 0.000490641. Max. DT: 3.63396. CFL: 10.
MG level: 1 -> Min. DT: 0.000777133. Max. DT: 5.55366. CFL: 8.11871.
MG level: 2 -> Min. DT: 0.0010444. Max. DT: 7.4251. CFL: 6.5465.
-------------------------------------------------------------------------

----------------------- Residual Evolution Summary ----------------------
log10[Maximum residual]: -6.59318.
Maximum residual point 407, located at (0.55191, 0.0576867).
-------------------------------------------------------------------------

 Iter    Time(s)     Res[Rho]     Res[RhoE]      CL(Total)      CD(Total)
 1781   0.049064    -7.814395     -7.277190       0.032467       0.000402
 1782   0.049068    -7.824024     -7.286005       0.032467       0.000402
 1783   0.049063    -7.833522     -7.294725       0.032467       0.000402
 1784   0.049060    -7.842893     -7.303346       0.032467       0.000402
 1785   0.049056    -7.852127     -7.311843       0.032467       0.000402
 1786   0.049049    -7.861220     -7.320204       0.032467       0.000402
 1787   0.049041    -7.870197     -7.328452       0.032468       0.000402
 1788   0.049032    -7.879113     -7.336657       0.032468       0.000402
 1789   0.049029    -7.888053     -7.344924       0.032468       0.000402
 1790   0.049032    -7.897118     -7.353381       0.032468       0.000402
 1791   0.049027    -7.906415     -7.362159       0.032468       0.000402
 1792   0.049021    -7.916043     -7.371382       0.032469       0.000402
 1793   0.049016    -7.926092     -7.381158       0.032469       0.000402
 1794   0.049044    -7.936631     -7.391576       0.032469       0.000402
 1795   0.049081    -7.947714     -7.402699       0.032469       0.000402
 1796   0.049156    -7.959372     -7.414564       0.032470       0.000402
 1797   0.049192    -7.971607     -7.427173       0.032470       0.000402
 1798   0.049209    -7.984395     -7.440492       0.032470       0.000402
 1799   0.049210    -7.997681     -7.454448       0.032470       0.000402
 1800   0.049222    -8.011382     -7.468930       0.032470       0.000402
 1801   0.049232    -8.025375     -7.483788       0.032471       0.000402
 1802   0.049226    -8.039581     -7.498894       0.032471       0.000402
 1803   0.049224    -8.053874     -7.514080       0.032471       0.000402
 1804   0.049218    -8.068116     -7.529163       0.032471       0.000402
 1805   0.049211    -8.082259     -7.544082       0.032472       0.000402
 1806   0.049206    -8.096261     -7.558785       0.032472       0.000402
 1807   0.049292    -8.110085     -7.573224       0.032472       0.000402
 1808   0.049287    -8.123658     -7.587301       0.032472       0.000402
 1809   0.049285    -8.136920     -7.600942       0.032473       0.000402
 1810   0.049278    -8.149858     -7.614136       0.032473       0.000402
 1811   0.049338    -8.162506     -7.626937       0.032473       0.000402
 1812   0.049338    -8.174937     -7.639447       0.032473       0.000402
 1813   0.049334    -8.187248     -7.651796       0.032474       0.000402
 1814   0.049326    -8.199541     -7.664118       0.032474       0.000402
 1815   0.049322    -8.211916     -7.676539       0.032474       0.000402
 1816   0.049319    -8.224468     -7.689181       0.032474       0.000402
 1817   0.049312    -8.237294     -7.702165       0.032474       0.000402
 1818   0.049309    -8.250489     -7.715613       0.032475       0.000402
 1819   0.049306    -8.264144     -7.729640       0.032475       0.000402
 1820   0.049302    -8.278345     -7.744353       0.032475       0.000402

---------------------- Local Time Stepping Summary ----------------------
MG level: 0 -> Min. DT: 0.000490638. Max. DT: 3.63396. CFL: 10.
MG level: 1 -> Min. DT: 0.000777132. Max. DT: 5.55366. CFL: 8.11871.
MG level: 2 -> Min. DT: 0.0010444. Max. DT: 7.42509. CFL: 6.5465.
-------------------------------------------------------------------------

----------------------- Residual Evolution Summary ----------------------
log10[Maximum residual]: -7.03092.
Maximum residual point 617, located at (0.560658, 0.0730861).
-------------------------------------------------------------------------

 Iter    Time(s)     Res[Rho]     Res[RhoE]      CL(Total)      CD(Total)
 1821   0.049294    -8.293162     -7.759842       0.032475       0.000402
 1822   0.049289    -8.308656     -7.776180       0.032475       0.000402
 1823   0.049285    -8.324869     -7.793420       0.032476       0.000402
 1824   0.049281    -8.341832     -7.811597       0.032476       0.000402
 1825   0.049275    -8.359559     -7.830724       0.032476       0.000402
 1826   0.049267    -8.378049     -7.850795       0.032476       0.000402
 1827   0.049261    -8.397285     -7.871777       0.032476       0.000402
 1828   0.049259    -8.417235     -7.893618       0.032477       0.000402
 1829   0.049254    -8.437850     -7.916246       0.032477       0.000402
 1830   0.049252    -8.459074     -7.939572       0.032477       0.000402
 1831   0.049255    -8.480841     -7.963499       0.032477       0.000402

-------------------------- File Output Summary --------------------------
Writing comma-separated values (CSV) surface files.
Merging connectivities in the Master node.
Merging coordinates in the Master node.
Merging solution in the Master node.
Writing SU2 native restart file.
Writing Paraview ASCII volume solution file.
Writing Paraview ASCII surface solution file.
Writing the forces breakdown file.
-------------------------------------------------------------------------

 1832   0.049489    -8.503081     -7.987927       0.032477       0.000402
 1833   0.049481    -8.525721     -8.012750       0.032477       0.000402
 1834   0.049480    -8.548669     -8.037844       0.032478       0.000402
 1835   0.049476    -8.571782     -8.063016       0.032478       0.000402
 1836   0.049468    -8.594754     -8.087840       0.032478       0.000402
 1837   0.049461    -8.616716     -8.111078       0.032478       0.000402
 1838   0.049455    -8.634446     -8.128082       0.032478       0.000402
 1839   0.049460    -8.643037     -8.132809       0.032478       0.000402
 1840   0.049464    -8.655857     -8.144983       0.032478       0.000402
 1841   0.049456    -8.671368     -8.161440       0.032479       0.000402
 1842   0.049453    -8.687964     -8.178571       0.032479       0.000402
 1843   0.049448    -8.699376     -8.187492       0.032479       0.000402
 1844   0.049453    -8.708123     -8.193182       0.032479       0.000402
 1845   0.049453    -8.714671     -8.196583       0.032479       0.000402
 1846   0.049448    -8.721796     -8.201439       0.032479       0.000402
 1847   0.049441    -8.729729     -8.207718       0.032479       0.000402
 1848   0.049436    -8.739052     -8.215989       0.032479       0.000402
 1849   0.049432    -8.748807     -8.224753       0.032479       0.000402
 1850   0.049439    -8.758153     -8.232834       0.032479       0.000402
 1851   0.049437    -8.766422     -8.239408       0.032479       0.000402
 1852   0.049434    -8.773549     -8.244515       0.032479       0.000402
 1853   0.049428    -8.779971     -8.248839       0.032479       0.000402
 1854   0.049422    -8.786351     -8.253301       0.032479       0.000402
 1855   0.049417    -8.793223     -8.258585       0.032479       0.000402
 1856   0.049411    -8.800866     -8.265011       0.032480       0.000402
 1857   0.049405    -8.809312     -8.272563       0.032480       0.000402
 1858   0.049401    -8.818441     -8.281042       0.032480       0.000402
 1859   0.049396    -8.828097     -8.290219       0.032480       0.000402
 1860   0.049395    -8.838153     -8.299912       0.032480       0.000402

---------------------- Local Time Stepping Summary ----------------------
MG level: 0 -> Min. DT: 0.000490637. Max. DT: 3.63396. CFL: 10.
MG level: 1 -> Min. DT: 0.000777132. Max. DT: 5.55366. CFL: 8.11871.
MG level: 2 -> Min. DT: 0.0010444. Max. DT: 7.42509. CFL: 6.5465.
-------------------------------------------------------------------------

----------------------- Residual Evolution Summary ----------------------
log10[Maximum residual]: -7.62337.
Maximum residual point 1071, located at (0.54808, 0.133101).
-------------------------------------------------------------------------

 Iter    Time(s)     Res[Rho]     Res[RhoE]      CL(Total)      CD(Total)
 1861   0.049389    -8.848520     -8.310005       0.032480       0.000402
 1862   0.049383    -8.859131     -8.320412       0.032480       0.000402
 1863   0.049378    -8.869921     -8.331048       0.032480       0.000402
 1864   0.049372    -8.880820     -8.341827       0.032480       0.000402
 1865   0.049379    -8.891772     -8.352683       0.032480       0.000402
 1866   0.049378    -8.902753     -8.363588       0.032480       0.000402
 1867   0.049373    -8.913776     -8.374564       0.032480       0.000402
 1868   0.049367    -8.924883     -8.385675       0.032480       0.000402
 1869   0.049364    -8.936129     -8.396992       0.032480       0.000402
 1870   0.049360    -8.947555     -8.408568       0.032480       0.000402
 1871   0.049359    -8.959174     -8.420415       0.032480       0.000402
 1872   0.049355    -8.970961     -8.432493       0.032480       0.000402
 1873   0.049354    -8.982861     -8.444722       0.032480       0.000402
 1874   0.049349    -8.994798     -8.456996       0.032480       0.000402
 1875   0.049345    -9.006691     -8.469204       0.032480       0.000402
 1876   0.049346    -9.018465     -8.481246       0.032480       0.000402
 1877   0.049341    -9.030067     -8.493049       0.032480       0.000402
 1878   0.049338    -9.041463     -8.504574       0.032480       0.000402
 1879   0.049333    -9.052653     -8.515822       0.032480       0.000402
 1880   0.049331    -9.063661     -8.526832       0.032480       0.000402
 1881   0.049336    -9.074541     -8.537674       0.032480       0.000402
 1882   0.049337    -9.085364     -8.548446       0.032480       0.000402
 1883   0.049335    -9.096217     -8.559262       0.032480       0.000402
 1884   0.049333    -9.107190     -8.570239       0.032480       0.000402
 1885   0.049329    -9.118372     -8.581490       0.032480       0.000402
 1886   0.049324    -9.129841     -8.593113       0.032480       0.000402
 1887   0.049319    -9.141665     -8.605189       0.032480       0.000402
 1888   0.049314    -9.153890     -8.617775       0.032480       0.000402
 1889   0.049316    -9.166548     -8.630903       0.032480       0.000402
 1890   0.049314    -9.179651     -8.644585       0.032480       0.000402
 1891   0.049312    -9.193194     -8.658807       0.032479       0.000402
 1892   0.049316    -9.207159     -8.673540       0.032479       0.000402
 1893   0.049311    -9.221514     -8.688739       0.032479       0.000402
 1894   0.049347    -9.236220     -8.704348       0.032479       0.000402
 1895   0.049375    -9.251234     -8.720307       0.032479       0.000402
 1896   0.049396    -9.266512     -8.736555       0.032479       0.000402
 1897   0.049412    -9.282012     -8.753035       0.032479       0.000402
 1898   0.049422    -9.297698     -8.769697       0.032479       0.000402
 1899   0.049431    -9.313541     -8.786503       0.032479       0.000402
 1900   0.049430    -9.329522     -8.803426       0.032479       0.000402

---------------------- Local Time Stepping Summary ----------------------
MG level: 0 -> Min. DT: 0.000490638. Max. DT: 3.63396. CFL: 10.
MG level: 1 -> Min. DT: 0.000777132. Max. DT: 5.55366. CFL: 8.11871.
MG level: 2 -> Min. DT: 0.0010444. Max. DT: 7.42509. CFL: 6.5465.
-------------------------------------------------------------------------

----------------------- Residual Evolution Summary ----------------------
log10[Maximum residual]: -8.02859.
Maximum residual point 407, located at (0.55191, 0.0576867).
-------------------------------------------------------------------------

 Iter    Time(s)     Res[Rho]     Res[RhoE]      CL(Total)      CD(Total)
 1901   0.049427    -9.345631     -8.820455       0.032479       0.000402
 1902   0.049422    -9.361870     -8.837593       0.032479       0.000402
 1903   0.049417    -9.378252     -8.854855       0.032479       0.000402
 1904   0.049415    -9.394800     -8.872275       0.032479       0.000402
 1905   0.049413    -9.411548     -8.889895       0.032479       0.000402
 1906   0.049409    -9.428537     -8.907771       0.032479       0.000402
 1907   0.049417    -9.445818     -8.925970       0.032479       0.000402
 1908   0.049413    -9.463451     -8.944569       0.032479       0.000402
 1909   0.049410    -9.481500     -8.963650       0.032479       0.000402
 1910   0.049406    -9.500034     -8.983304       0.032479       0.000402
 1911   0.049409    -9.519127     -9.003625       0.032479       0.000402
 1912   0.049416    -9.538854     -9.024708       0.032479       0.000402
 1913   0.049413    -9.559282     -9.046640       0.032479       0.000402
 1914   0.049410    -9.580466     -9.069487       0.032479       0.000402
 1915   0.049404    -9.602427     -9.093269       0.032479       0.000402
 1916   0.049405    -9.625116     -9.117905       0.032479       0.000402
 1917   0.049405    -9.648340     -9.143110       0.032479       0.000402
 1918   0.049404    -9.671568     -9.168110       0.032479       0.000402
 1919   0.049404    -9.693177     -9.190540       0.032479       0.000402
 1920   0.049407    -9.708725     -9.204294       0.032479       0.000402
 1921   0.049420    -9.720736     -9.213980       0.032479       0.000402
 1922   0.049419    -9.736225     -9.229444       0.032479       0.000402
 1923   0.049414    -9.751465     -9.244242       0.032479       0.000402
 1924   0.049410    -9.763912     -9.254490       0.032479       0.000402
 1925   0.049406    -9.774256     -9.262042       0.032479       0.000402
 1926   0.049400    -9.784569     -9.270134       0.032479       0.000402
 1927   0.049396    -9.794647     -9.278227       0.032479       0.000402
 1928   0.049392    -9.805275     -9.287271       0.032479       0.000402
 1929   0.049389    -9.816492     -9.297197       0.032479       0.000402
 1930   0.049384    -9.827862     -9.307317       0.032479       0.000402
 1931   0.049380    -9.838897     -9.316953       0.032479       0.000402
 1932   0.049436    -9.849285     -9.325730       0.032479       0.000402
 1933   0.049431    -9.858927     -9.333580       0.032479       0.000402
 1934   0.049428    -9.868081     -9.340910       0.032479       0.000402
 1935   0.049424    -9.877186     -9.348335       0.032479       0.000402
 1936   0.049426    -9.886631     -9.356355       0.032479       0.000402
 1937   0.049421    -9.896639     -9.365227       0.032479       0.000402
 1938   0.049417    -9.907241     -9.374952       0.032479       0.000402
 1939   0.049418    -9.918326     -9.385349       0.032479       0.000402
 1940   0.049422    -9.929717     -9.396162       0.032479       0.000402

---------------------- Local Time Stepping Summary ----------------------
MG level: 0 -> Min. DT: 0.000490638. Max. DT: 3.63396. CFL: 10.
MG level: 1 -> Min. DT: 0.000777132. Max. DT: 5.55366. CFL: 8.11871.
MG level: 2 -> Min. DT: 0.0010444. Max. DT: 7.42509. CFL: 6.5465.
-------------------------------------------------------------------------

----------------------- Residual Evolution Summary ----------------------
log10[Maximum residual]: -8.64442.
Maximum residual point 357, located at (0.520284, 0.0588007).
-------------------------------------------------------------------------

 Iter    Time(s)     Res[Rho]     Res[RhoE]      CL(Total)      CD(Total)
 1941   0.049421    -9.941238     -9.407150       0.032479       0.000402
 1942   0.049416    -9.952743     -9.418123       0.032479       0.000402
 1943   0.049412    -9.964133     -9.428954       0.032479       0.000402
 1944   0.049408    -9.975340     -9.439563       0.032479       0.000402
 1945   0.049405    -9.986331     -9.449913       0.032479       0.000402
 1946   0.049400    -9.997102     -9.460006       0.032479       0.000402
 1947   0.049395   -10.007684     -9.469891       0.032479       0.000402

-------------------------- File Output Summary --------------------------
Writing comma-separated values (CSV) surface files.
Merging connectivities in the Master node.
Merging coordinates in the Master node.
Merging solution in the Master node.
Writing SU2 native restart file.
Writing Paraview ASCII volume solution file.
Writing Paraview ASCII surface solution file.
Writing the forces breakdown file.
-------------------------------------------------------------------------

History file, closed.

------------------------- Solver Postprocessing -------------------------
Deleted CNumerics container.
Deleted CIntegration container.
Deleted CSolver container.
Deleted CIteration container.
Deleted CInterpolator container.
Deleted CTransfer container.
Deleted CGeometry container.
Deleted CFreeFormDefBox class.
Deleted CSurfaceMovement class.
Deleted CVolumetricMovement class.
Deleted CConfig container.
Deleted COutput class.
-------------------------------------------------------------------------

Completed in 18.204839 seconds on 1 core.

------------------------- Exit Success (SU2_CFD) ------------------------

