
-------------------------------------------------------------------------
|    ___ _   _ ___                                                      |
|   / __| | | |_  )   Release 5.0.0  "Raven"                            |
|   \__ \ |_| |/ /                                                      |
|   |___/\___//___|   Suite (Computational Fluid Dynamics Code)         |
|                                                                       |
-------------------------------------------------------------------------
| SU2 Original Developers: Dr. Francisco D. Palacios.                   |
|                          Dr. Thomas D. Economon.                      |
-------------------------------------------------------------------------
| SU2 Developers:                                                       |
| - Prof. Juan J. Alonso's group at Stanford University.                |
| - Prof. Piero Colonna's group at Delft University of Technology.      |
| - Prof. Nicolas R. Gauger's group at Kaiserslautern U. of Technology. |
| - Prof. Alberto Guardone's group at Polytechnic University of Milan.  |
| - Prof. Rafael Palacios' group at Imperial College London.            |
| - Prof. Edwin van der Weide's group at the University of Twente.      |
| - Prof. Vincent Terrapon's group at the University of Liege.          |
-------------------------------------------------------------------------
| Copyright (C) 2012-2017 SU2, the open-source CFD code.                |
|                                                                       |
| SU2 is free software; you can redistribute it and/or                  |
| modify it under the terms of the GNU Lesser General Public            |
| License as published by the Free Software Foundation; either          |
| version 2.1 of the License, or (at your option) any later version.    |
|                                                                       |
| SU2 is distributed in the hope that it will be useful,                |
| but WITHOUT ANY WARRANTY; without even the implied warranty of        |
| MERCHANTABILITY or FITNESS FOR A PARTICULAR PURPOSE. See the GNU      |
| Lesser General Public License for more details.                       |
|                                                                       |
| You should have received a copy of the GNU Lesser General Public      |
| License along with SU2. If not, see <http://www.gnu.org/licenses/>.   |
-------------------------------------------------------------------------

------------------------ Physical Case Definition -----------------------
Compressible Euler equations.
Mach number: 0.8.
Angle of attack (AoA): 1.25 deg, and angle of sideslip (AoS): 0 deg.
Read flow solution from: solution_flow.dat.
Non-Dimensional simulation (P=1.0, Rho=1.0, T=1.0 at the farfield).
The reference length/area (force coefficient) is 1.
The reference length (moment computation) is 1.
Reference origin (moment computation) is (0.25, 0, 0).
Surface(s) where the force coefficients are evaluated: airfoil.
Surface(s) plotted in the output file: airfoil.
Surface(s) affected by the design variables: airfoil.
Input mesh file name: mesh_NACA0012_inv_deform.su2

---------------------- Space Numerical Integration ----------------------
Jameson-Schmidt-Turkel scheme for the flow inviscid terms.
JST viscous coefficients (1st, 2nd & 4th): 0.15, 0.5, 0.02.
The method includes a grid stretching correction (p = 0.3).
Second order integration.
Gradient computation using Green-Gauss theorem.

---------------------- Time Numerical Integration -----------------------
Local time stepping (steady state simulation).
Euler implicit method for the flow equations.
V Multigrid Cycle, with 2 multigrid levels.
Damping factor for the residual restriction: 1.
Damping factor for the correction prolongation: 1.
No CFL adaptation.
Multigrid Level:                       0     1     2
Courant-Friedrichs-Lewy number:       10
MG PreSmooth coefficients:             1     2     3
MG PostSmooth coefficients:            0     0     0
MG CorrecSmooth coefficients:          0     0     0

------------------------- Convergence Criteria --------------------------
Maximum number of iterations: 1000.
Reduce the density residual 6 orders of magnitude.
The minimum bound for the density residual is 10^(-10).
Start convergence criteria at iteration 10.

-------------------------- Output Information ---------------------------
Writing a flow solution every 250 iterations.
Writing the convergence history every 1 iterations.
The output file format is Paraview ASCII (.vtk).
Convergence history file name: history_direct.
Forces breakdown file name: forces_breakdown.dat.
Surface flow coefficients file name: surface_flow.
Flow variables file name: flow.
Restart flow file name: restart_flow.dat.

------------------- Config File Boundary Information --------------------
Euler wall boundary marker(s): airfoil.
Far-field boundary marker(s): farfield.

---------------------- Read Grid File Information -----------------------
Two dimensional problem.
5233 points.
2 surface markers.
200 boundary elements in index 0 (Marker = airfoil).
50 boundary elements in index 1 (Marker = farfield).
10216 triangles.

------------------------- Geometry Preprocessing ------------------------
Setting point connectivity.
Renumbering points (Reverse Cuthill McKee Ordering).
Recomputing point connectivity.
Setting element connectivity.
Checking the numerical grid orientation.
Identifying edges and vertices.
Computing centers of gravity.
Setting the control volume structure.
Area of the computational grid: 1.25e+03.
Searching for the closest normal neighbors to the surfaces.
Compute the surface curvature.
Max K: 7.84e+03. Mean K: 35.7. Standard deviation K: 494.
Checking for periodicity.
Setting the multigrid structure.
MG level: 0 -> CVs: 5233. Agglomeration rate 1/1.00. CFL 10.
MG level: 1 -> CVs: 1533. Agglomeration rate 1/3.41. CFL 8.12.
MG level: 2 -> CVs: 443. Agglomeration rate 1/3.46. CFL 6.55.
Computing wall distances.
Wetted area = 2.03 m.
Area projection in the x-plane = 0.107 m, y-plane = 1 m.

------------------------- Driver information --------------------------
A Fluid driver has been instantiated.

------------------------ Iteration Preprocessing ------------------------
Zone 1: Euler/Navier-Stokes/RANS flow iteration.

------------------------- Solver Preprocessing --------------------------
Inviscid flow: Computing density based on free-stream
temperature and pressure using the ideal gas law.
Force coefficients computed using free-stream values.
-- Input conditions:
Fluid Model: STANDARD_AIR 
Specific gas constant: 287.058 N.m/kg.K.
Specific gas constant (non-dim): 1
Specific Heat Ratio: 1.4
Free-stream static pressure: 101325 Pa.
Free-stream total pressure: 154454 Pa.
Free-stream temperature: 288.15 K.
Free-stream density: 1.22498 kg/m^3.
Free-stream velocity: (272.173, 5.93883) m/s. Magnitude: 272.238 m/s (529.186 KTS).
Free-stream total energy per unit mass: 243846 m^2/s^2.
-- Reference values:
Reference specific gas constant: 287.058 N.m/kg.K.
Reference pressure: 101325 Pa.
Reference temperature: 288.15 K.
Reference density: 1.22498 kg/m^3.
Reference velocity: 287.603 m/s.
Reference energy per unit mass: 82715.8 m^2/s^2.
-- Resulting non-dimensional state:
Mach number (non-dim): 0.8
Specific gas constant (non-dim): 1
Free-stream temperature (non-dim): 1
Free-stream pressure (non-dim): 1
Free-stream density (non-dim): 1
Free-stream velocity (non-dim): (0.946348, 0.0206494). Magnitude: 0.946573
Free-stream total energy per unit mass (non-dim): 2.948

Initialize Jacobian structure (Euler). MG level: 0.
Initialize Jacobian structure (Euler). MG level: 1.
Initialize Jacobian structure (Euler). MG level: 2.

----------------- Integration and Numerics Preprocessing ----------------
Integration Preprocessing.
Numerics Preprocessing.

------------------------------ Begin Solver -----------------------------

---------------------- Local Time Stepping Summary ----------------------
MG level: 0 -> Min. DT: 0.000497809. Max. DT: 3.6287. CFL: 10.
MG level: 1 -> Min. DT: 0.00078444. Max. DT: 5.54687. CFL: 8.11871.
MG level: 2 -> Min. DT: 0.0010489. Max. DT: 7.4146. CFL: 6.5465.
-------------------------------------------------------------------------

----------------------- Residual Evolution Summary ----------------------
log10[Maximum residual]: -7.36337.
Maximum residual point 105, located at (0.00752, 0.0115481).
-------------------------------------------------------------------------

 Iter    Time(s)     Res[Rho]     Res[RhoE]      CL(Total)      CD(Total)
 4097   0.065073    -8.465951     -7.869644       0.066878       0.000450
 4098   0.070692    -8.529244     -7.926853       0.066879       0.000451
 4099   0.066129    -8.543688     -7.946825       0.066879       0.000451
 4100   0.062439    -8.512736     -7.912150       0.066880       0.000451
 4101   0.063388    -8.457158     -7.854532       0.066880       0.000451
 4102   0.061356    -8.423610     -7.822779       0.066881       0.000451
 4103   0.059732    -8.408640     -7.810333       0.066881       0.000451
 4104   0.058549    -8.397541     -7.800502       0.066882       0.000451
 4105   0.058149    -8.389279     -7.793014       0.066882       0.000451
 4106   0.058036    -8.379713     -7.783225       0.066883       0.000452
 4107   0.057294    -8.370579     -7.773477       0.066883       0.000452
 4108   0.056622    -8.370701     -7.773828       0.066883       0.000452
 4109   0.056112    -8.379309     -7.783062       0.066884       0.000452
 4110   0.055636    -8.394141     -7.798478       0.066884       0.000452
 4111   0.055688    -8.413043     -7.817508       0.066884       0.000452
 4112   0.055302    -8.433668     -7.837255       0.066885       0.000452
 4113   0.055048    -8.453814     -7.855121       0.066885       0.000452
 4114   0.054706    -8.472611     -7.870431       0.066885       0.000452
 4115   0.054711    -8.491666     -7.885707       0.066885       0.000452
 4116   0.054496    -8.514562     -7.905719       0.066886       0.000452
 4117   0.054898    -8.545490     -7.935705       0.066886       0.000452
 4118   0.054826    -8.586572     -7.978530       0.066886       0.000452
 4119   0.054541    -8.634612     -8.031096       0.066886       0.000452
 4120   0.054328    -8.682508     -8.085451       0.066887       0.000452
 4121   0.054291    -8.723273     -8.133014       0.066887       0.000452
 4122   0.054564    -8.754371     -8.170067       0.066887       0.000452
 4123   0.054390    -8.776221     -8.196651       0.066887       0.000452
 4124   0.054324    -8.790762     -8.214961       0.066887       0.000452
 4125   0.054201    -8.799823     -8.227077       0.066887       0.000452
 4126   0.054015    -8.805509     -8.235250       0.066887       0.000452
 4127   0.053851    -8.808797     -8.240204       0.066888       0.000452
 4128   0.053700    -8.810825     -8.243052       0.066888       0.000452
 4129   0.053552    -8.813592     -8.246293       0.066888       0.000452
 4130   0.053412    -8.817949     -8.251124       0.066888       0.000452
 4131   0.053416    -8.823787     -8.257514       0.066888       0.000452
 4132   0.053294    -8.831614     -8.266158       0.066888       0.000452
 4133   0.053177    -8.842499     -8.278431       0.066888       0.000452
 4134   0.053072    -8.857496     -8.295733       0.066888       0.000452
 4135   0.053102    -8.877416     -8.319282       0.066888       0.000452
 4136   0.054000    -8.902173     -8.349279       0.066888       0.000452

---------------------- Local Time Stepping Summary ----------------------
MG level: 0 -> Min. DT: 0.000497809. Max. DT: 3.6287. CFL: 10.
MG level: 1 -> Min. DT: 0.00078444. Max. DT: 5.54687. CFL: 8.11871.
MG level: 2 -> Min. DT: 0.0010489. Max. DT: 7.4146. CFL: 6.5465.
-------------------------------------------------------------------------

----------------------- Residual Evolution Summary ----------------------
log10[Maximum residual]: -7.88725.
Maximum residual point 1906, located at (0.603227, 0.284623).
-------------------------------------------------------------------------

 Iter    Time(s)     Res[Rho]     Res[RhoE]      CL(Total)      CD(Total)
 4137   0.054098    -8.930526     -8.384413       0.066888       0.000452
 4138   0.053953    -8.960238     -8.421766       0.066888       0.000452
 4139   0.053917    -8.988638     -8.457417       0.066888       0.000452
 4140   0.053795    -9.013362     -8.487883       0.066889       0.000452
 4141   0.053701    -9.032180     -8.510366       0.066889       0.000452
 4142   0.053620    -9.042717     -8.521603       0.066889       0.000452
 4143   0.053627    -9.046663     -8.523766       0.066889       0.000452
 4144   0.053683    -9.049397     -8.524716       0.066889       0.000452
 4145   0.053592    -9.053519     -8.528134       0.066889       0.000452
 4146   0.053527    -9.057980     -8.532084       0.066889       0.000452
 4147   0.053452    -9.055704     -8.526392       0.066889       0.000452
 4148   0.053362    -9.047146     -8.513236       0.066889       0.000452
 4149   0.053282    -9.042359     -8.506202       0.066889       0.000452
 4150   0.053197    -9.038702     -8.500518       0.066889       0.000452
 4151   0.053117    -9.038518     -8.499117       0.066889       0.000452
 4152   0.053044    -9.041546     -8.501787       0.066889       0.000452
 4153   0.052988    -9.046993     -8.507427       0.066889       0.000452
 4154   0.052943    -9.054418     -8.515425       0.066889       0.000452
 4155   0.052944    -9.063403     -8.525254       0.066889       0.000452
 4156   0.052982    -9.073811     -8.536785       0.066889       0.000452
 4157   0.052899    -9.085655     -8.550083       0.066889       0.000452
 4158   0.052827    -9.099036     -8.565302       0.066889       0.000452
 4159   0.052814    -9.114057     -8.582581       0.066889       0.000452
 4160   0.052742    -9.130773     -8.602001       0.066889       0.000452
 4161   0.052674    -9.149074     -8.623432       0.066889       0.000452
 4162   0.052637    -9.168582     -8.646399       0.066889       0.000452
 4163   0.052694    -9.188644     -8.670027       0.066889       0.000452
 4164   0.052658    -9.208342     -8.693027       0.066889       0.000452
 4165   0.052599    -9.226180     -8.713188       0.066889       0.000452
 4166   0.052552    -9.238711     -8.725389       0.066889       0.000452
 4167   0.052548    -9.246825     -8.733033       0.066889       0.000452
 4168   0.052485    -9.259894     -8.747248       0.066889       0.000452
 4169   0.052422    -9.251753     -8.731142       0.066889       0.000452
 4170   0.052371    -9.243558     -8.716846       0.066889       0.000452
 4171   0.052319    -9.256443     -8.731582       0.066889       0.000452
 4172   0.052279    -9.264200     -8.738400       0.066889       0.000452
 4173   0.052264    -9.277360     -8.751822       0.066889       0.000452
 4174   0.052308    -9.291606     -8.766611       0.066889       0.000452
 4175   0.052272    -9.305634     -8.780926       0.066889       0.000452
 4176   0.052235    -9.319109     -8.794196       0.066889       0.000452

---------------------- Local Time Stepping Summary ----------------------
MG level: 0 -> Min. DT: 0.000497809. Max. DT: 3.6287. CFL: 10.
MG level: 1 -> Min. DT: 0.00078444. Max. DT: 5.54687. CFL: 8.11871.
MG level: 2 -> Min. DT: 0.0010489. Max. DT: 7.4146. CFL: 6.5465.
-------------------------------------------------------------------------

----------------------- Residual Evolution Summary ----------------------
log10[Maximum residual]: -8.16502.
Maximum residual point 1183, located at (0.596854, 0.131538).
-------------------------------------------------------------------------

 Iter    Time(s)     Res[Rho]     Res[RhoE]      CL(Total)      CD(Total)
 4177   0.052188    -9.330745     -8.804788       0.066889       0.000452
 4178   0.052136    -9.341507     -8.814293       0.066889       0.000452
 4179   0.052115    -9.352372     -8.824142       0.066889       0.000452
 4180   0.052085    -9.364441     -8.835777       0.066889       0.000452
 4181   0.052048    -9.378372     -8.850003       0.066889       0.000452
 4182   0.052108    -9.394358     -8.867025       0.066889       0.000452
 4183   0.052130    -9.412336     -8.886716       0.066889       0.000452
 4184   0.052091    -9.432080     -8.908747       0.066889       0.000452
 4185   0.052058    -9.453296     -8.932685       0.066889       0.000452
 4186   0.052029    -9.475641     -8.958038       0.066889       0.000452
 4187   0.051998    -9.498715     -8.984227       0.066889       0.000452
 4188   0.051962    -9.521953     -9.010423       0.066889       0.000452
 4189   0.051924    -9.544290     -9.035044       0.066889       0.000452
 4190   0.051890    -9.563034     -9.054120       0.066889       0.000452
 4191   0.051886    -9.572831     -9.060440       0.066889       0.000452
 4192   0.052055    -9.579609     -9.063578       0.066889       0.000452
 4193   0.052133    -9.590825     -9.074306       0.066889       0.000452
 4194   0.052299    -9.607296     -9.093395       0.066889       0.000452
 4195   0.052416    -9.627586     -9.116815       0.066889       0.000452
 4196   0.052578    -9.646125     -9.135828       0.066889       0.000452
 4197   0.052646    -9.660703     -9.148131       0.066889       0.000452
 4198   0.052612    -9.673790     -9.158449       0.066889       0.000452
 4199   0.052571    -9.687532     -9.170146       0.066889       0.000452
 4200   0.052545    -9.702406     -9.183712       0.066889       0.000452
 4201   0.052545    -9.718944     -9.199641       0.066889       0.000452
 4202   0.052526    -9.736776     -9.217239       0.066889       0.000452
 4203   0.052492    -9.755020     -9.235199       0.066889       0.000452
 4204   0.052455    -9.772884     -9.252447       0.066889       0.000452
 4205   0.052424    -9.789911     -9.268461       0.066889       0.000452
 4206   0.052390    -9.806229     -9.283550       0.066889       0.000452
 4207   0.052354    -9.822400     -9.298581       0.066889       0.000452
 4208   0.052317    -9.839144     -9.314562       0.066889       0.000452
 4209   0.052285    -9.857081     -9.332301       0.066889       0.000452
 4210   0.052264    -9.876571     -9.352214       0.066889       0.000452
 4211   0.052238    -9.897691     -9.374320       0.066889       0.000452
 4212   0.052230    -9.920295     -9.398350       0.066889       0.000452
 4213   0.052208    -9.944110     -9.423877       0.066889       0.000452
 4214   0.052206    -9.968827     -9.450449       0.066889       0.000452
 4215   0.052182    -9.994162     -9.477669       0.066889       0.000452
 4216   0.052161   -10.019879     -9.505221       0.066889       0.000452

-------------------------- File Output Summary --------------------------
Writing comma-separated values (CSV) surface files.
Merging connectivities in the Master node.
Merging coordinates in the Master node.
Merging solution in the Master node.
Writing SU2 native restart file.
Writing Paraview ASCII volume solution file.
Writing Paraview ASCII surface solution file.
Writing the forces breakdown file.
-------------------------------------------------------------------------

History file, closed.

------------------------- Solver Postprocessing -------------------------
Deleted CNumerics container.
Deleted CIntegration container.
Deleted CSolver container.
Deleted CIteration container.
Deleted CInterpolator container.
Deleted CTransfer container.
Deleted CGeometry container.
Deleted CFreeFormDefBox class.
Deleted CSurfaceMovement class.
Deleted CVolumetricMovement class.
Deleted CConfig container.
Deleted COutput class.
-------------------------------------------------------------------------

Completed in 6.345456 seconds on 1 core.

------------------------- Exit Success (SU2_CFD) ------------------------

