
-------------------------------------------------------------------------
|    ___ _   _ ___                                                      |
|   / __| | | |_  )   Release 5.0.0  "Raven"                            |
|   \__ \ |_| |/ /                                                      |
|   |___/\___//___|   Suite (Computational Fluid Dynamics Code)         |
|                                                                       |
-------------------------------------------------------------------------
| SU2 Original Developers: Dr. Francisco D. Palacios.                   |
|                          Dr. Thomas D. Economon.                      |
-------------------------------------------------------------------------
| SU2 Developers:                                                       |
| - Prof. Juan J. Alonso's group at Stanford University.                |
| - Prof. Piero Colonna's group at Delft University of Technology.      |
| - Prof. Nicolas R. Gauger's group at Kaiserslautern U. of Technology. |
| - Prof. Alberto Guardone's group at Polytechnic University of Milan.  |
| - Prof. Rafael Palacios' group at Imperial College London.            |
| - Prof. Edwin van der Weide's group at the University of Twente.      |
| - Prof. Vincent Terrapon's group at the University of Liege.          |
-------------------------------------------------------------------------
| Copyright (C) 2012-2017 SU2, the open-source CFD code.                |
|                                                                       |
| SU2 is free software; you can redistribute it and/or                  |
| modify it under the terms of the GNU Lesser General Public            |
| License as published by the Free Software Foundation; either          |
| version 2.1 of the License, or (at your option) any later version.    |
|                                                                       |
| SU2 is distributed in the hope that it will be useful,                |
| but WITHOUT ANY WARRANTY; without even the implied warranty of        |
| MERCHANTABILITY or FITNESS FOR A PARTICULAR PURPOSE. See the GNU      |
| Lesser General Public License for more details.                       |
|                                                                       |
| You should have received a copy of the GNU Lesser General Public      |
| License along with SU2. If not, see <http://www.gnu.org/licenses/>.   |
-------------------------------------------------------------------------

------------------------ Physical Case Definition -----------------------
Compressible Euler equations.
Mach number: 0.8.
Angle of attack (AoA): 1.25 deg, and angle of sideslip (AoS): 0 deg.
Read flow solution from: solution_flow.dat.
Non-Dimensional simulation (P=1.0, Rho=1.0, T=1.0 at the farfield).
The reference length/area (force coefficient) is 1.
The reference length (moment computation) is 1.
Reference origin (moment computation) is (0.25, 0, 0).
Surface(s) where the force coefficients are evaluated: airfoil.
Surface(s) plotted in the output file: airfoil.
Surface(s) affected by the design variables: airfoil.
Input mesh file name: mesh_deform.su2

---------------------- Space Numerical Integration ----------------------
Jameson-Schmidt-Turkel scheme for the flow inviscid terms.
JST viscous coefficients (1st, 2nd & 4th): 0.15, 0.5, 0.02.
The method includes a grid stretching correction (p = 0.3).
Second order integration.
Gradient computation using Green-Gauss theorem.

---------------------- Time Numerical Integration -----------------------
Local time stepping (steady state simulation).
Euler implicit method for the flow equations.
V Multigrid Cycle, with 2 multigrid levels.
Damping factor for the residual restriction: 1.
Damping factor for the correction prolongation: 1.
No CFL adaptation.
Multigrid Level:                       0     1     2
Courant-Friedrichs-Lewy number:       10
MG PreSmooth coefficients:             1     2     3
MG PostSmooth coefficients:            0     0     0
MG CorrecSmooth coefficients:          0     0     0

------------------------- Convergence Criteria --------------------------
Maximum number of iterations: 1000.
Reduce the density residual 6 orders of magnitude.
The minimum bound for the density residual is 10^(-10).
Start convergence criteria at iteration 10.

-------------------------- Output Information ---------------------------
Writing a flow solution every 250 iterations.
Writing the convergence history every 1 iterations.
The output file format is Paraview ASCII (.vtk).
Convergence history file name: history_direct.
Forces breakdown file name: forces_breakdown.dat.
Surface flow coefficients file name: surface_flow.
Flow variables file name: flow.
Restart flow file name: restart_flow.dat.

------------------- Config File Boundary Information --------------------
Euler wall boundary marker(s): airfoil.
Far-field boundary marker(s): farfield.

---------------------- Read Grid File Information -----------------------
Two dimensional problem.
5233 points before parallel partitioning.
Performing linear partitioning of the grid nodes.
10216 interior elements before parallel partitioning.
Calling the partitioning functions.
Building the graph adjacency structure.
Distributing elements across all ranks.
2 surface markers.
200 boundary elements in index 0 (Marker = airfoil).
50 boundary elements in index 1 (Marker = farfield).
Calling ParMETIS...
Finished partitioning using ParMETIS (547 edge cuts).
Communicating partition data and creating halo layers.
10763 interior elements including halo cells. 
10763 triangles.
5796 vertices including ghost points. 
Establishing MPI communication patterns.

------------------------- Geometry Preprocessing ------------------------
Setting point connectivity.
Renumbering points (Reverse Cuthill McKee Ordering).
Recomputing point connectivity.
Setting element connectivity.
Checking the numerical grid orientation.
Identifying edges and vertices.
Computing centers of gravity.
Setting the control volume structure.
Area of the computational grid: 1.3e+03.
Searching for the closest normal neighbors to the surfaces.
Compute the surface curvature.
Max K: 7.84e+03. Mean K: 35.6. Standard deviation K: 494.
Checking for periodicity.
Setting the multigrid structure.
MG level: 0 -> CVs: 5796. Agglomeration rate 1/1.00. CFL 10.
MG level: 1 -> CVs: 1800. Agglomeration rate 1/3.22. CFL 8.36.
MG level: 2 -> CVs: 626. Agglomeration rate 1/2.88. CFL 7.39.
Computing wall distances.
Wetted area = 2.03 m.
Area projection in the x-plane = 0.107 m, y-plane = 1 m.

------------------------- Driver information --------------------------
A Fluid driver has been instantiated.

------------------------ Iteration Preprocessing ------------------------
Zone 1: Euler/Navier-Stokes/RANS flow iteration.

------------------------- Solver Preprocessing --------------------------
Inviscid flow: Computing density based on free-stream
temperature and pressure using the ideal gas law.
Force coefficients computed using free-stream values.
-- Input conditions:
Fluid Model: STANDARD_AIR 
Specific gas constant: 287.058 N.m/kg.K.
Specific gas constant (non-dim): 1
Specific Heat Ratio: 1.4
Free-stream static pressure: 101325 Pa.
Free-stream total pressure: 154454 Pa.
Free-stream temperature: 288.15 K.
Free-stream density: 1.22498 kg/m^3.
Free-stream velocity: (272.173, 5.93883) m/s. Magnitude: 272.238 m/s (529.186 KTS).
Free-stream total energy per unit mass: 243846 m^2/s^2.
-- Reference values:
Reference specific gas constant: 287.058 N.m/kg.K.
Reference pressure: 101325 Pa.
Reference temperature: 288.15 K.
Reference density: 1.22498 kg/m^3.
Reference velocity: 287.603 m/s.
Reference energy per unit mass: 82715.8 m^2/s^2.
-- Resulting non-dimensional state:
Mach number (non-dim): 0.8
Specific gas constant (non-dim): 1
Free-stream temperature (non-dim): 1
Free-stream pressure (non-dim): 1
Free-stream density (non-dim): 1
Free-stream velocity (non-dim): (0.946348, 0.0206494). Magnitude: 0.946573
Free-stream total energy per unit mass (non-dim): 2.948

Initialize Jacobian structure (Euler). MG level: 0.
Initialize Jacobian structure (Euler). MG level: 1.
Initialize Jacobian structure (Euler). MG level: 2.

----------------- Integration and Numerics Preprocessing ----------------
Integration Preprocessing.
Numerics Preprocessing.

------------------------------ Begin Solver -----------------------------

---------------------- Local Time Stepping Summary ----------------------
MG level: 0 -> Min. DT: 0.000497807. Max. DT: 3.62865. CFL: 10.
MG level: 1 -> Min. DT: 0.000799995. Max. DT: 5.7111. CFL: 8.35917.
MG level: 2 -> Min. DT: 0.00155935. Max. DT: 8.31063. CFL: 7.39444.
-------------------------------------------------------------------------

----------------------- Residual Evolution Summary ----------------------
log10[Maximum residual]: -5.20727.
Maximum residual point 105, located at (0.00752, 0.0115907).
-------------------------------------------------------------------------

 Iter    Time(s)     Res[Rho]     Res[RhoE]      CL(Total)      CD(Total)
  339   0.028515    -6.328378     -5.731998       0.066833       0.000645
  340   0.024385    -6.370444     -5.768042       0.066760       0.000585
  341   0.022808    -6.353102     -5.755543       0.066707       0.000554
  342   0.021994    -6.337444     -5.737649       0.066653       0.000530
  343   0.021214    -6.311307     -5.710146       0.066589       0.000511
  344   0.020513    -6.275931     -5.675271       0.066520       0.000499
  345   0.019996    -6.241099     -5.640829       0.066451       0.000490
  346   0.019706    -6.212123     -5.611665       0.066386       0.000482
  347   0.019488    -6.190352     -5.589713       0.066327       0.000476
  348   0.019265    -6.174263     -5.573540       0.066275       0.000472
  349   0.019177    -6.162582     -5.561805       0.066228       0.000469
  350   0.018993    -6.154123     -5.553279       0.066187       0.000467
  351   0.018830    -6.147649     -5.546702       0.066150       0.000465
  352   0.018725    -6.142254     -5.541150       0.066116       0.000464
  353   0.018671    -6.137482     -5.536134       0.066086       0.000463
  354   0.018590    -6.133063     -5.531308       0.066059       0.000463
  355   0.018517    -6.128748     -5.526319       0.066034       0.000463
  356   0.018494    -6.124314     -5.520857       0.066012       0.000463
  357   0.018452    -6.119659     -5.514801       0.065992       0.000463
  358   0.018458    -6.114845     -5.508267       0.065974       0.000463
  359   0.018670    -6.110088     -5.501569       0.065958       0.000463
  360   0.018978    -6.105721     -5.495147       0.065943       0.000463
  361   0.019342    -6.102172     -5.489527       0.065930       0.000463
  362   0.019572    -6.100000     -5.485346       0.065918       0.000463
  363   0.019693    -6.099962     -5.483439       0.065906       0.000463
  364   0.019659    -6.103156     -5.484992       0.065896       0.000462
  365   0.019617    -6.111247     -5.491804       0.065886       0.000461
  366   0.019590    -6.126981     -5.506853       0.065877       0.000460
  367   0.019764    -6.155328     -5.535589       0.065868       0.000458
  368   0.020103    -6.206716     -5.589682       0.065860       0.000456
  369   0.020320    -6.302827     -5.694810       0.065855       0.000454
  370   0.020515    -6.400500     -5.806862       0.065843       0.000452
  371   0.020598    -6.418430     -5.827826       0.065823       0.000450
  372   0.020641    -6.436548     -5.849805       0.065803       0.000447
  373   0.020672    -6.471585     -5.893021       0.065780       0.000445
  374   0.020720    -6.501366     -5.929674       0.065757       0.000444
  375   0.020767    -6.500559     -5.928819       0.065733       0.000443
  376   0.020845    -6.494116     -5.921859       0.065708       0.000442
  377   0.020838    -6.505579     -5.936944       0.065684       0.000440
  378   0.020905    -6.528456     -5.966097       0.065661       0.000439

---------------------- Local Time Stepping Summary ----------------------
MG level: 0 -> Min. DT: 0.000497829. Max. DT: 3.62865. CFL: 10.
MG level: 1 -> Min. DT: 0.000799999. Max. DT: 5.71111. CFL: 8.35917.
MG level: 2 -> Min. DT: 0.00155942. Max. DT: 8.31064. CFL: 7.39444.
-------------------------------------------------------------------------

----------------------- Residual Evolution Summary ----------------------
log10[Maximum residual]: -5.42752.
Maximum residual point 2352, located at (0.47451, 0.429863).
-------------------------------------------------------------------------

 Iter    Time(s)     Res[Rho]     Res[RhoE]      CL(Total)      CD(Total)
  379   0.020971    -6.532689     -5.972364       0.065639       0.000439
  380   0.021081    -6.524707     -5.964204       0.065618       0.000438
  381   0.021163    -6.531157     -5.973454       0.065598       0.000438
  382   0.021233    -6.555430     -6.004212       0.065580       0.000438
  383   0.021227    -6.560757     -6.010942       0.065564       0.000439
  384   0.021243    -6.553652     -6.002586       0.065549       0.000440
  385   0.021313    -6.571647     -6.024757       0.065535       0.000440
  386   0.021412    -6.609932     -6.072089       0.065523       0.000441
  387   0.021455    -6.614602     -6.075805       0.065513       0.000442
  388   0.021468    -6.628191     -6.090781       0.065503       0.000443
  389   0.021510    -6.676728     -6.151958       0.065494       0.000444
  390   0.021541    -6.707516     -6.186574       0.065486       0.000445
  391   0.021549    -6.719028     -6.194179       0.065480       0.000446
  392   0.021505    -6.712224     -6.181138       0.065475       0.000447
  393   0.021436    -6.693030     -6.155949       0.065472       0.000448
  394   0.021421    -6.703114     -6.169308       0.065471       0.000448
  395   0.021342    -6.683444     -6.142721       0.065469       0.000449
  396   0.021263    -6.663301     -6.116623       0.065468       0.000450
  397   0.021193    -6.673758     -6.130959       0.065468       0.000450
  398   0.021119    -6.689402     -6.150837       0.065468       0.000451
  399   0.021050    -6.702959     -6.166533       0.065468       0.000451
  400   0.020980    -6.711249     -6.174905       0.065468       0.000452
  401   0.020938    -6.706398     -6.166061       0.065469       0.000452
  402   0.020878    -6.699490     -6.155708       0.065469       0.000452
  403   0.020807    -6.696531     -6.151331       0.065470       0.000453
  404   0.020758    -6.696396     -6.150683       0.065470       0.000453
  405   0.020704    -6.696743     -6.150395       0.065471       0.000453
  406   0.020661    -6.696829     -6.149611       0.065471       0.000453
  407   0.020606    -6.697411     -6.149469       0.065472       0.000453
  408   0.020556    -6.699264     -6.150999       0.065472       0.000453
  409   0.020537    -6.702632     -6.154455       0.065472       0.000453
  410   0.020558    -6.707569     -6.159839       0.065472       0.000453
  411   0.020515    -6.714205     -6.167284       0.065472       0.000453
  412   0.020473    -6.722710     -6.176980       0.065471       0.000453
  413   0.020425    -6.733177     -6.189023       0.065471       0.000453
  414   0.020378    -6.745595     -6.203374       0.065471       0.000453
  415   0.020341    -6.759905     -6.219942       0.065471       0.000453
  416   0.020297    -6.776064     -6.238668       0.065471       0.000453
  417   0.020263    -6.794053     -6.259529       0.065471       0.000453
  418   0.020221    -6.813806     -6.282433       0.065471       0.000453

---------------------- Local Time Stepping Summary ----------------------
MG level: 0 -> Min. DT: 0.000497796. Max. DT: 3.62865. CFL: 10.
MG level: 1 -> Min. DT: 0.000799994. Max. DT: 5.71111. CFL: 8.35917.
MG level: 2 -> Min. DT: 0.00155934. Max. DT: 8.31065. CFL: 7.39444.
-------------------------------------------------------------------------

----------------------- Residual Evolution Summary ----------------------
log10[Maximum residual]: -5.70619.
Maximum residual point 1582, located at (0.537286, 0.217702).
-------------------------------------------------------------------------

 Iter    Time(s)     Res[Rho]     Res[RhoE]      CL(Total)      CD(Total)
  419   0.020180    -6.835142     -6.307133       0.065471       0.000453
  420   0.020138    -6.857574     -6.333010       0.065471       0.000453
  421   0.020099    -6.880134     -6.358833       0.065471       0.000453
  422   0.020075    -6.900519     -6.381417       0.065472       0.000453
  423   0.020038    -6.914288     -6.394557       0.065472       0.000453
  424   0.020003    -6.921452     -6.399659       0.065472       0.000453
  425   0.019968    -6.921116     -6.396016       0.065473       0.000453
  426   0.019933    -6.914853     -6.385726       0.065473       0.000453
  427   0.019903    -6.907019     -6.374606       0.065473       0.000453
  428   0.019879    -6.901202     -6.366950       0.065473       0.000453
  429   0.019847    -6.899011     -6.364310       0.065473       0.000453
  430   0.019819    -6.900440     -6.366271       0.065473       0.000453
  431   0.019786    -6.904943     -6.371894       0.065472       0.000453
  432   0.019752    -6.912233     -6.380725       0.065472       0.000453
  433   0.019724    -6.922150     -6.392548       0.065471       0.000453
  434   0.019695    -6.934507     -6.407090       0.065471       0.000453
  435   0.019682    -6.949185     -6.424157       0.065470       0.000453
  436   0.019659    -6.966193     -6.443742       0.065469       0.000453
  437   0.019631    -6.985594     -6.465909       0.065469       0.000453
  438   0.019604    -7.007104     -6.490257       0.065468       0.000453
  439   0.019573    -7.030089     -6.515946       0.065468       0.000453
  440   0.019551    -7.053478     -6.541599       0.065467       0.000453
  441   0.019530    -7.076154     -6.565863       0.065467       0.000453
  442   0.019539    -7.097546     -6.588199       0.065466       0.000453
  443   0.019535    -7.117434     -6.608510       0.065465       0.000453
  444   0.019515    -7.135981     -6.627116       0.065465       0.000453
  445   0.019494    -7.153959     -6.645151       0.065464       0.000453
  446   0.019471    -7.172054     -6.663539       0.065464       0.000453
  447   0.019454    -7.190200     -6.681982       0.065463       0.000453
  448   0.019436    -7.208199     -6.700097       0.065462       0.000453
  449   0.019415    -7.225959     -6.717820       0.065461       0.000453
  450   0.019405    -7.243421     -6.735138       0.065460       0.000453
  451   0.019383    -7.260463     -6.751921       0.065460       0.000453
  452   0.019366    -7.277005     -6.768079       0.065459       0.000453
  453   0.019343    -7.292950     -6.783537       0.065458       0.000453
  454   0.019321    -7.308165     -6.798245       0.065457       0.000453
  455   0.019298    -7.324061     -6.814286       0.065456       0.000453
  456   0.019294    -7.340476     -6.830880       0.065455       0.000453
  457   0.019289    -7.349760     -6.836930       0.065454       0.000453
  458   0.019272    -7.373531     -6.865306       0.065453       0.000453

---------------------- Local Time Stepping Summary ----------------------
MG level: 0 -> Min. DT: 0.000497806. Max. DT: 3.62865. CFL: 10.
MG level: 1 -> Min. DT: 0.000799994. Max. DT: 5.71111. CFL: 8.35917.
MG level: 2 -> Min. DT: 0.00155936. Max. DT: 8.31065. CFL: 7.39444.
-------------------------------------------------------------------------

----------------------- Residual Evolution Summary ----------------------
log10[Maximum residual]: -6.16851.
Maximum residual point 407, located at (0.551932, 0.0590574).
-------------------------------------------------------------------------

 Iter    Time(s)     Res[Rho]     Res[RhoE]      CL(Total)      CD(Total)
  459   0.019259    -7.388943     -6.879871       0.065452       0.000453
  460   0.019241    -7.403837     -6.893411       0.065451       0.000453
  461   0.019220    -7.426561     -6.919763       0.065450       0.000453
  462   0.019206    -7.439823     -6.930844       0.065450       0.000453
  463   0.019223    -7.464556     -6.959385       0.065449       0.000453
  464   0.019251    -7.486972     -6.982982       0.065449       0.000453
  465   0.019291    -7.509285     -7.005526       0.065448       0.000453
  466   0.019315    -7.527876     -7.022786       0.065448       0.000453
  467   0.019372    -7.549840     -7.045745       0.065448       0.000453
  468   0.019360    -7.570613     -7.066616       0.065447       0.000453
  469   0.019339    -7.589196     -7.084067       0.065447       0.000453
  470   0.019318    -7.608911     -7.103619       0.065447       0.000453
  471   0.019299    -7.631758     -7.128130       0.065447       0.000453
  472   0.019280    -7.654662     -7.151505       0.065447       0.000453
  473   0.019261    -7.676281     -7.172694       0.065447       0.000453
  474   0.019247    -7.697076     -7.192735       0.065447       0.000453
  475   0.019230    -7.721570     -7.218968       0.065447       0.000453
  476   0.019209    -7.746170     -7.244284       0.065447       0.000453
  477   0.019201    -7.771554     -7.270309       0.065447       0.000453
  478   0.019197    -7.792643     -7.289731       0.065447       0.000453
  479   0.019183    -7.814399     -7.311069       0.065447       0.000453
  480   0.019163    -7.836774     -7.333327       0.065447       0.000453
  481   0.019150    -7.860963     -7.357996       0.065447       0.000453
  482   0.019134    -7.885680     -7.383370       0.065447       0.000453
  483   0.019120    -7.913512     -7.412677       0.065447       0.000453
  484   0.019105    -7.935845     -7.432986       0.065447       0.000453
  485   0.019088    -7.959772     -7.456509       0.065447       0.000453
  486   0.019071    -7.979874     -7.474515       0.065447       0.000453
  487   0.019054    -8.001777     -7.495895       0.065447       0.000453
  488   0.019036    -8.019547     -7.511275       0.065447       0.000453
  489   0.019023    -8.043906     -7.537140       0.065448       0.000453
  490   0.019012    -8.066232     -7.559397       0.065448       0.000453
  491   0.019000    -8.091319     -7.585615       0.065448       0.000453
  492   0.018986    -8.116831     -7.611873       0.065448       0.000453
  493   0.018972    -8.142921     -7.638651       0.065448       0.000453
  494   0.018956    -8.169746     -7.666061       0.065448       0.000453
  495   0.018946    -8.195779     -7.692047       0.065448       0.000453
  496   0.018932    -8.222045     -7.718474       0.065448       0.000453
  497   0.018921    -8.247861     -7.744292       0.065448       0.000453
  498   0.018931    -8.274198     -7.770904       0.065448       0.000453

---------------------- Local Time Stepping Summary ----------------------
MG level: 0 -> Min. DT: 0.000497805. Max. DT: 3.62865. CFL: 10.
MG level: 1 -> Min. DT: 0.000799994. Max. DT: 5.71111. CFL: 8.35917.
MG level: 2 -> Min. DT: 0.00155936. Max. DT: 8.31065. CFL: 7.39444.
-------------------------------------------------------------------------

----------------------- Residual Evolution Summary ----------------------
log10[Maximum residual]: -7.07679.
Maximum residual point 252, located at (0.425555, 0.0616643).
-------------------------------------------------------------------------

 Iter    Time(s)     Res[Rho]     Res[RhoE]      CL(Total)      CD(Total)
  499   0.018931    -8.299135     -7.795376       0.065448       0.000453
  500   0.018927    -8.323759     -7.819579       0.065448       0.000453
  501   0.018919    -8.347444     -7.842624       0.065448       0.000453
  502   0.018904    -8.371572     -7.866612       0.065448       0.000453
  503   0.018894    -8.396123     -7.891376       0.065448       0.000453
  504   0.018882    -8.421532     -7.917155       0.065448       0.000453
  505   0.018872    -8.446364     -7.942010       0.065448       0.000453
  506   0.018866    -8.472010     -7.967863       0.065448       0.000453
  507   0.018855    -8.496126     -7.991545       0.065448       0.000453
  508   0.018849    -8.520286     -8.015381       0.065448       0.000453
  509   0.018837    -8.543617     -8.038424       0.065448       0.000453
  510   0.018827    -8.566705     -8.061081       0.065448       0.000453
  511   0.018814    -8.581438     -8.071625       0.065448       0.000453
  512   0.018805    -8.611314     -8.106618       0.065448       0.000453
  513   0.018803    -8.625070     -8.116683       0.065448       0.000453
  514   0.018792    -8.649924     -8.142931       0.065448       0.000453
  515   0.018788    -8.670446     -8.163202       0.065449       0.000453
  516   0.018780    -8.699518     -8.195003       0.065449       0.000453
  517   0.018769    -8.703901     -8.190154       0.065449       0.000453
  518   0.018765    -8.727919     -8.217378       0.065449       0.000453
  519   0.018755    -8.749598     -8.242364       0.065449       0.000453
  520   0.018750    -8.770084     -8.261234       0.065449       0.000453
  521   0.018748    -8.798255     -8.293176       0.065449       0.000453
  522   0.018743    -8.821367     -8.315352       0.065449       0.000453
  523   0.018734    -8.847874     -8.343106       0.065449       0.000453
  524   0.018726    -8.875726     -8.372698       0.065449       0.000453
  525   0.018716    -8.895268     -8.389046       0.065449       0.000453
  526   0.018739    -8.918695     -8.413144       0.065449       0.000453
  527   0.018739    -8.946225     -8.442674       0.065449       0.000453
  528   0.018729    -8.965171     -8.458793       0.065449       0.000453
  529   0.018720    -8.984453     -8.476528       0.065449       0.000453
  530   0.018712    -9.005543     -8.497675       0.065449       0.000453
  531   0.018704    -9.021967     -8.511861       0.065449       0.000453
  532   0.018698    -9.046632     -8.538764       0.065449       0.000453
  533   0.018686    -9.068378     -8.560517       0.065449       0.000453
  534   0.018677    -9.082328     -8.570553       0.065449       0.000453
  535   0.018676    -9.108984     -8.600768       0.065449       0.000453
  536   0.018669    -9.134848     -8.628361       0.065449       0.000453
  537   0.018663    -9.151168     -8.640816       0.065449       0.000453
  538   0.018659    -9.177911     -8.669990       0.065449       0.000453

---------------------- Local Time Stepping Summary ----------------------
MG level: 0 -> Min. DT: 0.000497805. Max. DT: 3.62865. CFL: 10.
MG level: 1 -> Min. DT: 0.000799994. Max. DT: 5.71111. CFL: 8.35917.
MG level: 2 -> Min. DT: 0.00155936. Max. DT: 8.31065. CFL: 7.39444.
-------------------------------------------------------------------------

----------------------- Residual Evolution Summary ----------------------
log10[Maximum residual]: -7.96509.
Maximum residual point 357, located at (0.520325, 0.0602503).
-------------------------------------------------------------------------

 Iter    Time(s)     Res[Rho]     Res[RhoE]      CL(Total)      CD(Total)
  539   0.018649    -9.201245     -8.693520       0.065449       0.000453
  540   0.018642    -9.215811     -8.703822       0.065449       0.000453
  541   0.018634    -9.240156     -8.729880       0.065449       0.000453
  542   0.018629    -9.258719     -8.747117       0.065449       0.000453
  543   0.018621    -9.268356     -8.751733       0.065449       0.000453
  544   0.018611    -9.290901     -8.776409       0.065449       0.000453
  545   0.018605    -9.312252     -8.798800       0.065449       0.000453
  546   0.018599    -9.319665     -8.800541       0.065449       0.000453
  547   0.018591    -9.338726     -8.820280       0.065450       0.000453
  548   0.018583    -9.366675     -8.852930       0.065450       0.000453
  549   0.018576    -9.375109     -8.855821       0.065450       0.000453
  550   0.018570    -9.385683     -8.863148       0.065450       0.000453
  551   0.018561    -9.416763     -8.901012       0.065450       0.000453
  552   0.018556    -9.434269     -8.917027       0.065450       0.000453
  553   0.018549    -9.432217     -8.906473       0.065450       0.000453
  554   0.018543    -9.451191     -8.927470       0.065450       0.000453
  555   0.018536    -9.487707     -8.973468       0.065450       0.000453
  556   0.018546    -9.484259     -8.960429       0.065450       0.000453
  557   0.018550    -9.479158     -8.948137       0.065450       0.000453
  558   0.018583    -9.510727     -8.988379       0.065450       0.000453
  559   0.018581    -9.540777     -9.024227       0.065450       0.000453
  560   0.018590    -9.521863     -8.992820       0.065450       0.000453
  561   0.018596    -9.529659     -8.998721       0.065450       0.000453
  562   0.018590    -9.565869     -9.045552       0.065450       0.000453
  563   0.018584    -9.584795     -9.064918       0.065450       0.000453
  564   0.018578    -9.564221     -9.033154       0.065450       0.000453
  565   0.018571    -9.595230     -9.071231       0.065450       0.000453
  566   0.018563    -9.636187     -9.123386       0.065450       0.000453
  567   0.018559    -9.615356     -9.089935       0.065450       0.000453
  568   0.018556    -9.627860     -9.101239       0.065450       0.000453
  569   0.018545    -9.674709     -9.161731       0.065450       0.000453
  570   0.018538    -9.671475     -9.150279       0.065450       0.000453
  571   0.018531    -9.657416     -9.127559       0.065450       0.000453
  572   0.018524    -9.710803     -9.197284       0.065450       0.000453
  573   0.018516    -9.742767     -9.233400       0.065450       0.000453
  574   0.018508    -9.711693     -9.187827       0.065450       0.000453
  575   0.018505    -9.755381     -9.241966       0.065450       0.000453
  576   0.018518    -9.782729     -9.273684       0.065450       0.000453
  577   0.018541    -9.764297     -9.244095       0.065450       0.000453
  578   0.018557    -9.810594     -9.300913       0.065450       0.000453

---------------------- Local Time Stepping Summary ----------------------
MG level: 0 -> Min. DT: 0.000497805. Max. DT: 3.62865. CFL: 10.
MG level: 1 -> Min. DT: 0.000799994. Max. DT: 5.71111. CFL: 8.35917.
MG level: 2 -> Min. DT: 0.00155936. Max. DT: 8.31065. CFL: 7.39444.
-------------------------------------------------------------------------

----------------------- Residual Evolution Summary ----------------------
log10[Maximum residual]: -8.73723.
Maximum residual point 435, located at (0.333463, 0.0601125).
-------------------------------------------------------------------------

 Iter    Time(s)     Res[Rho]     Res[RhoE]      CL(Total)      CD(Total)
  579   0.018568    -9.841262     -9.334585       0.065450       0.000453
  580   0.018577    -9.813708     -9.292771       0.065450       0.000453
  581   0.018566    -9.860567     -9.351658       0.065450       0.000453
  582   0.018561    -9.888106     -9.382203       0.065450       0.000453
  583   0.018582    -9.861656     -9.341614       0.065450       0.000453
  584   0.018577    -9.903820     -9.393802       0.065450       0.000453
  585   0.018575    -9.934012     -9.428592       0.065450       0.000453
  586   0.018568    -9.910003     -9.390971       0.065450       0.000453
  587   0.018562    -9.949704     -9.439623       0.065450       0.000453
  588   0.018556    -9.982252     -9.477446       0.065450       0.000453
  589   0.018550    -9.960232     -9.442062       0.065450       0.000453

-------------------------- File Output Summary --------------------------
Writing comma-separated values (CSV) surface files.
Merging coordinates in the Master node.
Merging solution in the Master node.
Writing SU2 native restart file.
Writing the forces breakdown file.
-------------------------------------------------------------------------

  590   0.018728    -9.996170     -9.485434       0.065450       0.000453
  591   0.018723   -10.031555     -9.526984       0.065450       0.000453

-------------------------- File Output Summary --------------------------
Writing comma-separated values (CSV) surface files.
Merging coordinates in the Master node.
Merging solution in the Master node.
Writing SU2 native restart file.
Writing the forces breakdown file.
-------------------------------------------------------------------------

History file, closed.

------------------------- Solver Postprocessing -------------------------
Deleted CNumerics container.
Deleted CIntegration container.
Deleted CSolver container.
Deleted CIteration container.
Deleted CInterpolator container.
Deleted CTransfer container.
Deleted CGeometry container.
Deleted CFreeFormDefBox class.
Deleted CSurfaceMovement class.
Deleted CVolumetricMovement class.
Deleted CConfig container.
Deleted COutput class.
-------------------------------------------------------------------------

Completed in 4.793154 seconds on 8 cores.

------------------------- Exit Success (SU2_CFD) ------------------------


-------------------------------------------------------------------------
|    ___ _   _ ___                                                      |
|   / __| | | |_  )   Release 5.0.0  "Raven"                            |
|   \__ \ |_| |/ /                                                      |
|   |___/\___//___|   Suite (Solution Exporting Code)                   |
|                                                                       |
-------------------------------------------------------------------------
| SU2 Original Developers: Dr. Francisco D. Palacios.                   |
|                          Dr. Thomas D. Economon.                      |
-------------------------------------------------------------------------
| SU2 Developers:                                                       |
| - Prof. Juan J. Alonso's group at Stanford University.                |
| - Prof. Piero Colonna's group at Delft University of Technology.      |
| - Prof. Nicolas R. Gauger's group at Kaiserslautern U. of Technology. |
| - Prof. Alberto Guardone's group at Polytechnic University of Milan.  |
| - Prof. Rafael Palacios' group at Imperial College London.            |
| - Prof. Edwin van der Weide's group at the University of Twente.      |
| - Prof. Vincent Terrapon's group at the University of Liege.          |
-------------------------------------------------------------------------
| Copyright (C) 2012-2017 SU2, the open-source CFD code.                |
|                                                                       |
| SU2 is free software; you can redistribute it and/or                  |
| modify it under the terms of the GNU Lesser General Public            |
| License as published by the Free Software Foundation; either          |
| version 2.1 of the License, or (at your option) any later version.    |
|                                                                       |
| SU2 is distributed in the hope that it will be useful,                |
| but WITHOUT ANY WARRANTY; without even the implied warranty of        |
| MERCHANTABILITY or FITNESS FOR A PARTICULAR PURPOSE. See the GNU      |
| Lesser General Public License for more details.                       |
|                                                                       |
| You should have received a copy of the GNU Lesser General Public      |
| License along with SU2. If not, see <http://www.gnu.org/licenses/>.   |
-------------------------------------------------------------------------

------------------------ Physical Case Definition -----------------------
Input mesh file name: mesh_deform.su2

-------------------------- Output Information ---------------------------
The output file format is Paraview ASCII (.vtk).
Flow variables file name: flow.

------------------- Config File Boundary Information --------------------
Euler wall boundary marker(s): airfoil.
Far-field boundary marker(s): farfield.

---------------------- Read Grid File Information -----------------------
Two dimensional problem.
5233 points before parallel partitioning.
Performing linear partitioning of the grid nodes.
10216 interior elements before parallel partitioning.
Calling the partitioning functions.
Building the graph adjacency structure.
Distributing elements across all ranks.
2 surface markers.
200 boundary elements in index 0 (Marker = airfoil).
50 boundary elements in index 1 (Marker = farfield).
Calling ParMETIS...
Finished partitioning using ParMETIS (547 edge cuts).
Communicating partition data and creating halo layers.
10763 interior elements including halo cells. 
10763 triangles.
5796 vertices including ghost points. 
Establishing MPI communication patterns.
Identify vertices.

------------------------- Solution Postprocessing -----------------------
Reading and storing the solution from restart_flow.dat.
Merging connectivities in the Master node.
Merging solution in the Master node.
Writing Paraview ASCII file (volume grid).
Writing Paraview ASCII file (surface grid).

Completed in 0.058580 seconds on 8 cores.

------------------------- Exit Success (SU2_SOL) ------------------------

