
-------------------------------------------------------------------------
|    ___ _   _ ___                                                      |
|   / __| | | |_  )   Release 5.0.0  "Raven"                            |
|   \__ \ |_| |/ /                                                      |
|   |___/\___//___|   Suite (Computational Fluid Dynamics Code)         |
|                                                                       |
-------------------------------------------------------------------------
| SU2 Original Developers: Dr. Francisco D. Palacios.                   |
|                          Dr. Thomas D. Economon.                      |
-------------------------------------------------------------------------
| SU2 Developers:                                                       |
| - Prof. Juan J. Alonso's group at Stanford University.                |
| - Prof. Piero Colonna's group at Delft University of Technology.      |
| - Prof. Nicolas R. Gauger's group at Kaiserslautern U. of Technology. |
| - Prof. Alberto Guardone's group at Polytechnic University of Milan.  |
| - Prof. Rafael Palacios' group at Imperial College London.            |
| - Prof. Edwin van der Weide's group at the University of Twente.      |
| - Prof. Vincent Terrapon's group at the University of Liege.          |
-------------------------------------------------------------------------
| Copyright (C) 2012-2017 SU2, the open-source CFD code.                |
|                                                                       |
| SU2 is free software; you can redistribute it and/or                  |
| modify it under the terms of the GNU Lesser General Public            |
| License as published by the Free Software Foundation; either          |
| version 2.1 of the License, or (at your option) any later version.    |
|                                                                       |
| SU2 is distributed in the hope that it will be useful,                |
| but WITHOUT ANY WARRANTY; without even the implied warranty of        |
| MERCHANTABILITY or FITNESS FOR A PARTICULAR PURPOSE. See the GNU      |
| Lesser General Public License for more details.                       |
|                                                                       |
| You should have received a copy of the GNU Lesser General Public      |
| License along with SU2. If not, see <http://www.gnu.org/licenses/>.   |
-------------------------------------------------------------------------

------------------------ Physical Case Definition -----------------------
Compressible Euler equations.
Mach number: 0.8.
Angle of attack (AoA): 1.25 deg, and angle of sideslip (AoS): 0 deg.
Read flow solution from: solution_flow.dat.
Non-Dimensional simulation (P=1.0, Rho=1.0, T=1.0 at the farfield).
The reference length/area (force coefficient) is 1.
The reference length (moment computation) is 1.
Reference origin (moment computation) is (0.25, 0, 0).
Surface(s) where the force coefficients are evaluated: airfoil.
Surface(s) plotted in the output file: airfoil.
Surface(s) affected by the design variables: airfoil.
Input mesh file name: mesh_NACA0012_inv_deform.su2

---------------------- Space Numerical Integration ----------------------
Jameson-Schmidt-Turkel scheme for the flow inviscid terms.
JST viscous coefficients (1st, 2nd & 4th): 0.15, 0.5, 0.02.
The method includes a grid stretching correction (p = 0.3).
Second order integration.
Gradient computation using Green-Gauss theorem.

---------------------- Time Numerical Integration -----------------------
Local time stepping (steady state simulation).
Euler implicit method for the flow equations.
V Multigrid Cycle, with 2 multigrid levels.
Damping factor for the residual restriction: 1.
Damping factor for the correction prolongation: 1.
No CFL adaptation.
Multigrid Level:                       0     1     2
Courant-Friedrichs-Lewy number:       10
MG PreSmooth coefficients:             1     2     3
MG PostSmooth coefficients:            0     0     0
MG CorrecSmooth coefficients:          0     0     0

------------------------- Convergence Criteria --------------------------
Maximum number of iterations: 1000.
Reduce the density residual 6 orders of magnitude.
The minimum bound for the density residual is 10^(-10).
Start convergence criteria at iteration 10.

-------------------------- Output Information ---------------------------
Writing a flow solution every 250 iterations.
Writing the convergence history every 1 iterations.
The output file format is Paraview ASCII (.vtk).
Convergence history file name: history_direct.
Forces breakdown file name: forces_breakdown.dat.
Surface flow coefficients file name: surface_flow.
Flow variables file name: flow.
Restart flow file name: restart_flow.dat.

------------------- Config File Boundary Information --------------------
Euler wall boundary marker(s): airfoil.
Far-field boundary marker(s): farfield.

---------------------- Read Grid File Information -----------------------
Two dimensional problem.
5233 points.
2 surface markers.
200 boundary elements in index 0 (Marker = airfoil).
50 boundary elements in index 1 (Marker = farfield).
10216 triangles.

------------------------- Geometry Preprocessing ------------------------
Setting point connectivity.
Renumbering points (Reverse Cuthill McKee Ordering).
Recomputing point connectivity.
Setting element connectivity.
Checking the numerical grid orientation.
Identifying edges and vertices.
Computing centers of gravity.
Setting the control volume structure.
Area of the computational grid: 1.25e+03.
Searching for the closest normal neighbors to the surfaces.
Compute the surface curvature.
Max K: 7.84e+03. Mean K: 35.6. Standard deviation K: 494.
Checking for periodicity.
Setting the multigrid structure.
MG level: 0 -> CVs: 5233. Agglomeration rate 1/1.00. CFL 10.
MG level: 1 -> CVs: 1533. Agglomeration rate 1/3.41. CFL 8.12.
MG level: 2 -> CVs: 443. Agglomeration rate 1/3.46. CFL 6.55.
Computing wall distances.
Wetted area = 2.03 m.
Area projection in the x-plane = 0.107 m, y-plane = 1 m.

------------------------- Driver information --------------------------
A Fluid driver has been instantiated.

------------------------ Iteration Preprocessing ------------------------
Zone 1: Euler/Navier-Stokes/RANS flow iteration.

------------------------- Solver Preprocessing --------------------------
Inviscid flow: Computing density based on free-stream
temperature and pressure using the ideal gas law.
Force coefficients computed using free-stream values.
-- Input conditions:
Fluid Model: STANDARD_AIR 
Specific gas constant: 287.058 N.m/kg.K.
Specific gas constant (non-dim): 1
Specific Heat Ratio: 1.4
Free-stream static pressure: 101325 Pa.
Free-stream total pressure: 154454 Pa.
Free-stream temperature: 288.15 K.
Free-stream density: 1.22498 kg/m^3.
Free-stream velocity: (272.173, 5.93883) m/s. Magnitude: 272.238 m/s (529.186 KTS).
Free-stream total energy per unit mass: 243846 m^2/s^2.
-- Reference values:
Reference specific gas constant: 287.058 N.m/kg.K.
Reference pressure: 101325 Pa.
Reference temperature: 288.15 K.
Reference density: 1.22498 kg/m^3.
Reference velocity: 287.603 m/s.
Reference energy per unit mass: 82715.8 m^2/s^2.
-- Resulting non-dimensional state:
Mach number (non-dim): 0.8
Specific gas constant (non-dim): 1
Free-stream temperature (non-dim): 1
Free-stream pressure (non-dim): 1
Free-stream density (non-dim): 1
Free-stream velocity (non-dim): (0.946348, 0.0206494). Magnitude: 0.946573
Free-stream total energy per unit mass (non-dim): 2.948

Initialize Jacobian structure (Euler). MG level: 0.
Initialize Jacobian structure (Euler). MG level: 1.
Initialize Jacobian structure (Euler). MG level: 2.

----------------- Integration and Numerics Preprocessing ----------------
Integration Preprocessing.
Numerics Preprocessing.

------------------------------ Begin Solver -----------------------------

---------------------- Local Time Stepping Summary ----------------------
MG level: 0 -> Min. DT: 0.000497793. Max. DT: 3.62844. CFL: 10.
MG level: 1 -> Min. DT: 0.000784448. Max. DT: 5.5466. CFL: 8.11871.
MG level: 2 -> Min. DT: 0.0010491. Max. DT: 7.41417. CFL: 6.5465.
-------------------------------------------------------------------------

----------------------- Residual Evolution Summary ----------------------
log10[Maximum residual]: -4.64641.
Maximum residual point 105, located at (0.00752, 0.0117058).
-------------------------------------------------------------------------

 Iter    Time(s)     Res[Rho]     Res[RhoE]      CL(Total)      CD(Total)
 2825   0.058149    -5.749116     -5.152736       0.066532       0.001338
 2826   0.060251    -5.812780     -5.210192       0.066291       0.001035
 2827   0.059785    -5.827762     -5.230778       0.066094       0.000930
 2828   0.056933    -5.796919     -5.196246       0.065843       0.000828
 2829   0.055197    -5.741215     -5.138540       0.065589       0.000745
 2830   0.054204    -5.707441     -5.106578       0.065314       0.000681
 2831   0.053563    -5.692155     -5.093775       0.065030       0.000639
 2832   0.053128    -5.681057     -5.083923       0.064763       0.000605
 2833   0.052918    -5.673015     -5.076678       0.064521       0.000583
 2834   0.053096    -5.663469     -5.066892       0.064306       0.000560
 2835   0.052956    -5.654534     -5.057346       0.064107       0.000538
 2836   0.052569    -5.654705     -5.057721       0.063920       0.000524
 2837   0.052266    -5.663240     -5.066848       0.063746       0.000513
 2838   0.052018    -5.677972     -5.082132       0.063584       0.000502
 2839   0.052117    -5.696793     -5.101049       0.063432       0.000492
 2840   0.052340    -5.717356     -5.120702       0.063290       0.000482
 2841   0.053872    -5.737380     -5.138414       0.063156       0.000473
 2842   0.053941    -5.755960     -5.153480       0.063030       0.000464
 2843   0.053644    -5.774687     -5.168395       0.062909       0.000455
 2844   0.053345    -5.797129     -5.187891       0.062792       0.000446
 2845   0.053215    -5.827554     -5.217264       0.062679       0.000438
 2846   0.053025    -5.868205     -5.259490       0.062568       0.000431
 2847   0.052807    -5.915926     -5.311526       0.062461       0.000424
 2848   0.052685    -5.963527     -5.365357       0.062360       0.000420
 2849   0.052560    -6.003694     -5.412063       0.062265       0.000418
 2850   0.052415    -6.033827     -5.447880       0.062176       0.000418
 2851   0.052307    -6.054371     -5.472905       0.062096       0.000420
 2852   0.052203    -6.067645     -5.489785       0.062023       0.000422
 2853   0.052088    -6.075717     -5.500840       0.061957       0.000425
 2854   0.051958    -6.080680     -5.508277       0.061896       0.000427
 2855   0.051875    -6.083469     -5.512775       0.061840       0.000429
 2856   0.051791    -6.085218     -5.515449       0.061787       0.000432
 2857   0.051703    -6.087869     -5.518707       0.061737       0.000433
 2858   0.051663    -6.092339     -5.523801       0.061690       0.000435
 2859   0.051603    -6.098610     -5.530821       0.061645       0.000436
 2860   0.051581    -6.107101     -5.540360       0.061603       0.000437
 2861   0.051713    -6.118721     -5.553611       0.061561       0.000438
 2862   0.051677    -6.134369     -5.571801       0.061522       0.000439
 2863   0.051628    -6.154760     -5.596029       0.061483       0.000440
 2864   0.051572    -6.179775     -5.626448       0.061446       0.000442

---------------------- Local Time Stepping Summary ----------------------
MG level: 0 -> Min. DT: 0.000497776. Max. DT: 3.62845. CFL: 10.
MG level: 1 -> Min. DT: 0.000784492. Max. DT: 5.54664. CFL: 8.11871.
MG level: 2 -> Min. DT: 0.00104908. Max. DT: 7.41421. CFL: 6.5465.
-------------------------------------------------------------------------

----------------------- Residual Evolution Summary ----------------------
log10[Maximum residual]: -5.15755.
Maximum residual point 1678, located at (0.554073, 0.250835).
-------------------------------------------------------------------------

 Iter    Time(s)     Res[Rho]     Res[RhoE]      CL(Total)      CD(Total)
 2865   0.051511    -6.208278     -5.661861       0.061411       0.000444
 2866   0.051455    -6.238214     -5.699574       0.061377       0.000446
 2867   0.051389    -6.267020     -5.735824       0.061344       0.000448
 2868   0.051328    -6.292265     -5.767056       0.061314       0.000449
 2869   0.051254    -6.311303     -5.789925       0.061285       0.000450
 2870   0.051326    -6.320295     -5.799063       0.061259       0.000450
 2871   0.051563    -6.321259     -5.797135       0.061236       0.000452
 2872   0.051744    -6.322048     -5.795651       0.061215       0.000453
 2873   0.051947    -6.325504     -5.798480       0.061197       0.000454
 2874   0.052074    -6.332204     -5.806041       0.061180       0.000455
 2875   0.052062    -6.340361     -5.815186       0.061165       0.000455
 2876   0.052074    -6.340387     -5.812270       0.061151       0.000455
 2877   0.052056    -6.334842     -5.802650       0.061139       0.000455
 2878   0.052025    -6.334089     -5.800420       0.061128       0.000454
 2879   0.052033    -6.334139     -5.799008       0.061118       0.000454
 2880   0.052134    -6.337803     -5.802185       0.061110       0.000453
 2881   0.052192    -6.343994     -5.808674       0.061103       0.000453
 2882   0.052167    -6.351662     -5.817006       0.061097       0.000452
 2883   0.052214    -6.360425     -5.826666       0.061092       0.000452
 2884   0.052398    -6.370263     -5.837653       0.061087       0.000452
 2885   0.052524    -6.381478     -5.850376       0.061084       0.000452
 2886   0.052624    -6.394343     -5.865211       0.061081       0.000452
 2887   0.052725    -6.409059     -5.882409       0.061078       0.000452
 2888   0.052673    -6.425627     -5.901921       0.061076       0.000452
 2889   0.052624    -6.443825     -5.923394       0.061075       0.000453
 2890   0.052584    -6.462431     -5.945072       0.061074       0.000453
 2891   0.052520    -6.477982     -5.962152       0.061074       0.000453
 2892   0.052451    -6.492705     -5.979872       0.061073       0.000453
 2893   0.052400    -6.507791     -5.996251       0.061073       0.000454
 2894   0.052351    -6.505151     -5.986530       0.061073       0.000454
 2895   0.052312    -6.503313     -5.979806       0.061072       0.000454
 2896   0.052270    -6.512360     -5.989337       0.061071       0.000454
 2897   0.052220    -6.519299     -5.995417       0.061070       0.000454
 2898   0.052194    -6.529027     -6.004729       0.061069       0.000454
 2899   0.052210    -6.539321     -6.014633       0.061067       0.000454
 2900   0.052199    -6.548971     -6.023514       0.061065       0.000454
 2901   0.052210    -6.557510     -6.030704       0.061062       0.000454
 2902   0.052161    -6.564616     -6.035929       0.061060       0.000454
 2903   0.052108    -6.571207     -6.040599       0.061057       0.000454
 2904   0.052061    -6.578159     -6.045921       0.061054       0.000454

---------------------- Local Time Stepping Summary ----------------------
MG level: 0 -> Min. DT: 0.000497784. Max. DT: 3.62845. CFL: 10.
MG level: 1 -> Min. DT: 0.000784466. Max. DT: 5.54664. CFL: 8.11871.
MG level: 2 -> Min. DT: 0.00104902. Max. DT: 7.41421. CFL: 6.5465.
-------------------------------------------------------------------------

----------------------- Residual Evolution Summary ----------------------
log10[Maximum residual]: -5.40018.
Maximum residual point 1183, located at (0.596896, 0.131393).
-------------------------------------------------------------------------

 Iter    Time(s)     Res[Rho]     Res[RhoE]      CL(Total)      CD(Total)
 2905   0.052021    -6.586567     -6.053299       0.061050       0.000454
 2906   0.052012    -6.597162     -6.063639       0.061047       0.000454
 2907   0.051991    -6.610190     -6.077195       0.061043       0.000454
 2908   0.051966    -6.625664     -6.093918       0.061039       0.000454
 2909   0.051929    -6.643247     -6.113367       0.061036       0.000453
 2910   0.051891    -6.662737     -6.135271       0.061032       0.000453
 2911   0.051885    -6.683892     -6.159312       0.061028       0.000453
 2912   0.051901    -6.706442     -6.185109       0.061024       0.000453
 2913   0.051857    -6.729851     -6.211916       0.061020       0.000453
 2914   0.051819    -6.753689     -6.239114       0.061016       0.000453
 2915   0.051782    -6.777374     -6.265837       0.061012       0.000453
 2916   0.051747    -6.799795     -6.290449       0.061009       0.000453
 2917   0.051705    -6.818790     -6.309835       0.061005       0.000453
 2918   0.051668    -6.831250     -6.319917       0.061002       0.000453
 2919   0.051689    -6.841038     -6.326977       0.060998       0.000453
 2920   0.051672    -6.853153     -6.338324       0.060995       0.000453
 2921   0.051658    -6.868215     -6.354337       0.060992       0.000453
 2922   0.051654    -6.885676     -6.373228       0.060990       0.000453
 2923   0.051624    -6.903129     -6.391122       0.060987       0.000453
 2924   0.051591    -6.919201     -6.406294       0.060985       0.000453
 2925   0.051557    -6.934122     -6.419606       0.060983       0.000454
 2926   0.051532    -6.949233     -6.433291       0.060981       0.000454
 2927   0.051508    -6.965502     -6.448717       0.060980       0.000454
 2928   0.051480    -6.983409     -6.466418       0.060978       0.000454
 2929   0.051461    -7.002850     -6.486104       0.060977       0.000454
 2930   0.051438    -7.023192     -6.506815       0.060976       0.000454
 2931   0.051413    -7.043670     -6.527494       0.060975       0.000454
 2932   0.051381    -7.063676     -6.547371       0.060974       0.000454
 2933   0.051352    -7.082922     -6.566189       0.060974       0.000454
 2934   0.051330    -7.101616     -6.584360       0.060973       0.000454
 2935   0.051308    -7.120401     -6.602828       0.060973       0.000454
 2936   0.051291    -7.140003     -6.622602       0.060972       0.000454
 2937   0.051285    -7.161044     -6.644452       0.060972       0.000454
 2938   0.051268    -7.183829     -6.668671       0.060971       0.000454
 2939   0.051299    -7.208321     -6.695093       0.060971       0.000454
 2940   0.051375    -7.234280     -6.723303       0.060971       0.000454
 2941   0.051366    -7.261340     -6.752737       0.060971       0.000454
 2942   0.051471    -7.289120     -6.782841       0.060971       0.000454
 2943   0.051448    -7.317255     -6.813107       0.060971       0.000454
 2944   0.051429    -7.345353     -6.843005       0.060971       0.000454

---------------------- Local Time Stepping Summary ----------------------
MG level: 0 -> Min. DT: 0.000497796. Max. DT: 3.62845. CFL: 10.
MG level: 1 -> Min. DT: 0.00078446. Max. DT: 5.54664. CFL: 8.11871.
MG level: 2 -> Min. DT: 0.00104902. Max. DT: 7.41421. CFL: 6.5465.
-------------------------------------------------------------------------

----------------------- Residual Evolution Summary ----------------------
log10[Maximum residual]: -6.15608.
Maximum residual point 362, located at (0.488651, 0.0610676).
-------------------------------------------------------------------------

 Iter    Time(s)     Res[Rho]     Res[RhoE]      CL(Total)      CD(Total)
 2945   0.051402    -7.372955     -6.871932       0.060971       0.000454
 2946   0.051388    -7.399715     -6.899462       0.060971       0.000454
 2947   0.051363    -7.425628     -6.925728       0.060971       0.000454
 2948   0.051350    -7.451299     -6.951708       0.060971       0.000454
 2949   0.051327    -7.477512     -6.978549       0.060971       0.000454
 2950   0.051316    -7.504968     -7.007175       0.060971       0.000454
 2951   0.051313    -7.533819     -7.037615       0.060970       0.000454
 2952   0.051318    -7.563463     -7.068776       0.060970       0.000454
 2953   0.051296    -7.592856     -7.099068       0.060970       0.000454
 2954   0.051271    -7.621503     -7.127996       0.060970       0.000454
 2955   0.051338    -7.649697     -7.156217       0.060970       0.000454
 2956   0.051406    -7.677657     -7.184108       0.060970       0.000454
 2957   0.051414    -7.705516     -7.211904       0.060970       0.000454
 2958   0.051584    -7.732655     -7.238707       0.060969       0.000454
 2959   0.051698    -7.758728     -7.264043       0.060969       0.000454
 2960   0.051694    -7.784423     -7.289069       0.060969       0.000454
 2961   0.051673    -7.806963     -7.309534       0.060969       0.000454
 2962   0.051659    -7.825243     -7.324251       0.060969       0.000454
 2963   0.051657    -7.843590     -7.340186       0.060968       0.000454
 2964   0.051631    -7.859508     -7.353170       0.060968       0.000454
 2965   0.051610    -7.871934     -7.361641       0.060968       0.000454
 2966   0.051633    -7.882635     -7.368464       0.060968       0.000454
 2967   0.051724    -7.892327     -7.374648       0.060968       0.000454
 2968   0.051752    -7.901723     -7.380997       0.060968       0.000454
 2969   0.051899    -7.911443     -7.388182       0.060968       0.000454
 2970   0.051917    -7.921660     -7.396290       0.060968       0.000454
 2971   0.051916    -7.932412     -7.405269       0.060968       0.000454
 2972   0.051950    -7.943490     -7.414763       0.060968       0.000454
 2973   0.051972    -7.954576     -7.424304       0.060968       0.000454
 2974   0.051971    -7.965326     -7.433425       0.060968       0.000454
 2975   0.051947    -7.975489     -7.441816       0.060968       0.000454
 2976   0.051957    -7.984982     -7.449403       0.060968       0.000454
 2977   0.051966    -7.993890     -7.456335       0.060968       0.000454
 2978   0.051954    -8.002428     -7.462916       0.060968       0.000454
 2979   0.051934    -8.010875     -7.469516       0.060968       0.000454
 2980   0.051906    -8.019505     -7.476481       0.060968       0.000454
 2981   0.051892    -8.028544     -7.484086       0.060968       0.000454
 2982   0.051873    -8.038149     -7.492510       0.060968       0.000454
 2983   0.051852    -8.048385     -7.501820       0.060969       0.000454
 2984   0.051839    -8.059255     -7.512004       0.060969       0.000454

---------------------- Local Time Stepping Summary ----------------------
MG level: 0 -> Min. DT: 0.000497794. Max. DT: 3.62845. CFL: 10.
MG level: 1 -> Min. DT: 0.000784458. Max. DT: 5.54664. CFL: 8.11871.
MG level: 2 -> Min. DT: 0.00104901. Max. DT: 7.41421. CFL: 6.5465.
-------------------------------------------------------------------------

----------------------- Residual Evolution Summary ----------------------
log10[Maximum residual]: -6.86751.
Maximum residual point 357, located at (0.520334, 0.0602099).
-------------------------------------------------------------------------

 Iter    Time(s)     Res[Rho]     Res[RhoE]      CL(Total)      CD(Total)
 2985   0.051822    -8.070705     -7.522983       0.060969       0.000454
 2986   0.051827    -8.082652     -7.534637       0.060969       0.000454
 2987   0.051826    -8.094991     -7.546826       0.060969       0.000454
 2988   0.051825    -8.107620     -7.559411       0.060969       0.000454
 2989   0.051821    -8.120446     -7.572271       0.060969       0.000454
 2990   0.051811    -8.133400     -7.585313       0.060970       0.000454
 2991   0.051800    -8.146438     -7.598482       0.060970       0.000454
 2992   0.051784    -8.159542     -7.611756       0.060970       0.000454
 2993   0.051760    -8.172719     -7.625144       0.060970       0.000454
 2994   0.051738    -8.185989     -7.638677       0.060970       0.000454
 2995   0.051739    -8.199385     -7.652394       0.060970       0.000454
 2996   0.051747    -8.212938     -7.666336       0.060971       0.000454
 2997   0.051755    -8.226674     -7.680537       0.060971       0.000454
 2998   0.051752    -8.240616     -7.695021       0.060971       0.000454
 2999   0.051738    -8.254775     -7.709800       0.060971       0.000454
 3000   0.051720    -8.269154     -7.724875       0.060971       0.000454
 3001   0.051703    -8.283749     -7.740234       0.060971       0.000454
 3002   0.051686    -8.298550     -7.755860       0.060971       0.000454
 3003   0.051674    -8.313542     -7.771729       0.060972       0.000454
 3004   0.051662    -8.328710     -7.787818       0.060972       0.000454
 3005   0.051645    -8.344040     -7.804103       0.060972       0.000454
 3006   0.051634    -8.359518     -7.820564       0.060972       0.000454
 3007   0.051617    -8.375136     -7.837187       0.060972       0.000454
 3008   0.051606    -8.390889     -7.853963       0.060972       0.000454
 3009   0.051591    -8.406776     -7.870888       0.060972       0.000454
 3010   0.051578    -8.422795     -7.887958       0.060973       0.000454
 3011   0.051560    -8.438950     -7.905175       0.060973       0.000454
 3012   0.051542    -8.455245     -7.922543       0.060973       0.000454
 3013   0.051525    -8.471681     -7.940060       0.060973       0.000454
 3014   0.051507    -8.488264     -7.957732       0.060973       0.000454
 3015   0.051488    -8.504989     -7.975549       0.060973       0.000454
 3016   0.051482    -8.521847     -7.993495       0.060973       0.000454
 3017   0.051496    -8.538828     -8.011553       0.060973       0.000454
 3018   0.051492    -8.555917     -8.029703       0.060973       0.000454
 3019   0.051485    -8.573096     -8.047915       0.060974       0.000454
 3020   0.051466    -8.590339     -8.066151       0.060974       0.000454
 3021   0.051453    -8.607616     -8.084371       0.060974       0.000454
 3022   0.051440    -8.624896     -8.102530       0.060974       0.000454
 3023   0.051425    -8.642143     -8.120583       0.060974       0.000454
 3024   0.051415    -8.659320     -8.138480       0.060974       0.000454

---------------------- Local Time Stepping Summary ----------------------
MG level: 0 -> Min. DT: 0.000497792. Max. DT: 3.62845. CFL: 10.
MG level: 1 -> Min. DT: 0.000784458. Max. DT: 5.54664. CFL: 8.11871.
MG level: 2 -> Min. DT: 0.00104901. Max. DT: 7.41421. CFL: 6.5465.
-------------------------------------------------------------------------

----------------------- Residual Evolution Summary ----------------------
log10[Maximum residual]: -7.41356.
Maximum residual point 357, located at (0.520334, 0.0602099).
-------------------------------------------------------------------------

 Iter    Time(s)     Res[Rho]     Res[RhoE]      CL(Total)      CD(Total)
 3025   0.051400    -8.676388     -8.156169       0.060974       0.000454
 3026   0.051397    -8.693304     -8.173598       0.060974       0.000454
 3027   0.051382    -8.710030     -8.190720       0.060974       0.000454
 3028   0.051376    -8.726526     -8.207488       0.060974       0.000454
 3029   0.051385    -8.742760     -8.223866       0.060974       0.000454
 3030   0.051390    -8.758705     -8.239827       0.060974       0.000454
 3031   0.051444    -8.774343     -8.255356       0.060974       0.000454
 3032   0.051426    -8.789667     -8.270453       0.060974       0.000454
 3033   0.051426    -8.804682     -8.285136       0.060974       0.000454
 3034   0.051409    -8.819405     -8.299437       0.060975       0.000454
 3035   0.051395    -8.833866     -8.313403       0.060975       0.000454
 3036   0.051397    -8.848106     -8.327095       0.060975       0.000454
 3037   0.051407    -8.862173     -8.340582       0.060975       0.000454
 3038   0.051417    -8.876122     -8.353939       0.060975       0.000454
 3039   0.051406    -8.890010     -8.367242       0.060975       0.000454
 3040   0.051391    -8.903895     -8.380568       0.060975       0.000454
 3041   0.051380    -8.917835     -8.393988       0.060975       0.000454
 3042   0.051368    -8.931885     -8.407571       0.060975       0.000454
 3043   0.051362    -8.946094     -8.421380       0.060975       0.000454
 3044   0.051352    -8.960512     -8.435472       0.060975       0.000454
 3045   0.051339    -8.975181     -8.449900       0.060975       0.000454
 3046   0.051335    -8.990142     -8.464713       0.060975       0.000454
 3047   0.051324    -9.005434     -8.479953       0.060975       0.000454
 3048   0.051317    -9.021090     -8.495662       0.060975       0.000454
 3049   0.051307    -9.037142     -8.511874       0.060975       0.000454
 3050   0.051296    -9.053617     -8.528621       0.060975       0.000454
 3051   0.051297    -9.070541     -8.545929       0.060975       0.000454
 3052   0.051284    -9.087933     -8.563818       0.060975       0.000454
 3053   0.051270    -9.105810     -8.582305       0.060975       0.000454
 3054   0.051260    -9.124185     -8.601399       0.060975       0.000454
 3055   0.051248    -9.143066     -8.621104       0.060975       0.000454
 3056   0.051247    -9.162458     -8.641419       0.060975       0.000454
 3057   0.051254    -9.182363     -8.662339       0.060975       0.000454
 3058   0.051251    -9.202779     -8.683852       0.060975       0.000454
 3059   0.051246    -9.223702     -8.705945       0.060975       0.000454
 3060   0.051236    -9.245125     -8.728602       0.060975       0.000454
 3061   0.051234    -9.267041     -8.751804       0.060976       0.000454
 3062   0.051221    -9.289438     -8.775529       0.060976       0.000454
 3063   0.051211    -9.312305     -8.799754       0.060976       0.000454
 3064   0.051217    -9.335626     -8.824451       0.060976       0.000454

---------------------- Local Time Stepping Summary ----------------------
MG level: 0 -> Min. DT: 0.000497792. Max. DT: 3.62845. CFL: 10.
MG level: 1 -> Min. DT: 0.000784458. Max. DT: 5.54664. CFL: 8.11871.
MG level: 2 -> Min. DT: 0.00104901. Max. DT: 7.41421. CFL: 6.5465.
-------------------------------------------------------------------------

----------------------- Residual Evolution Summary ----------------------
log10[Maximum residual]: -8.15785.
Maximum residual point 362, located at (0.488651, 0.0610676).
-------------------------------------------------------------------------

 Iter    Time(s)     Res[Rho]     Res[RhoE]      CL(Total)      CD(Total)
 3065   0.051260    -9.359381     -8.849588       0.060976       0.000454
 3066   0.051306    -9.383545     -8.875124       0.060976       0.000454
 3067   0.051361    -9.408079     -8.901003       0.060976       0.000454
 3068   0.051478    -9.432921     -8.927138       0.060976       0.000454
 3069   0.051524    -9.457969     -8.953382       0.060976       0.000454
 3070   0.051519    -9.483027     -8.979464       0.060976       0.000454
 3071   0.051526    -9.507707     -9.004837       0.060976       0.000454
 3072   0.051521    -9.531254     -9.028460       0.060976       0.000454
 3073   0.051518    -9.552946     -9.049451       0.060976       0.000454
 3074   0.051511    -9.573110     -9.068589       0.060976       0.000454
 3075   0.051523    -9.593066     -9.087915       0.060976       0.000454

-------------------------- File Output Summary --------------------------
Writing comma-separated values (CSV) surface files.
Merging connectivities in the Master node.
Merging coordinates in the Master node.
Merging solution in the Master node.
Writing SU2 native restart file.
Writing Paraview ASCII volume solution file.
Writing Paraview ASCII surface solution file.
Writing the forces breakdown file.
-------------------------------------------------------------------------

 3076   0.051773    -9.613423     -9.108058       0.060976       0.000454
 3077   0.051760    -9.633218     -9.127326       0.060976       0.000454
 3078   0.051750    -9.651622     -9.144567       0.060976       0.000454
 3079   0.051758    -9.668379     -9.159656       0.060976       0.000454
 3080   0.051762    -9.684065     -9.173605       0.060976       0.000454
 3081   0.051763    -9.699866     -9.188118       0.060976       0.000454
 3082   0.051774    -9.716774     -9.204435       0.060976       0.000454
 3083   0.051764    -9.735163     -9.222828       0.060976       0.000454
 3084   0.051752    -9.754775     -9.242702       0.060976       0.000454
 3085   0.051742    -9.774827     -9.262853       0.060976       0.000454
 3086   0.051732    -9.794346     -9.281983       0.060976       0.000454
 3087   0.051722    -9.812515     -9.299134       0.060976       0.000454
 3088   0.051711    -9.829124     -9.314240       0.060976       0.000454
 3089   0.051699    -9.844724     -9.328251       0.060976       0.000454
 3090   0.051686    -9.860230     -9.342496       0.060976       0.000454
 3091   0.051673    -9.876416     -9.357983       0.060976       0.000454
 3092   0.051663    -9.893656     -9.375094       0.060976       0.000454
 3093   0.051665    -9.911898     -9.393622       0.060976       0.000454
 3094   0.051670    -9.930815     -9.413016       0.060976       0.000454
 3095   0.051659    -9.949962     -9.432618       0.060976       0.000454
 3096   0.051655    -9.968902     -9.451839       0.060976       0.000454
 3097   0.051647    -9.987262     -9.470210       0.060976       0.000454
 3098   0.051644   -10.004773     -9.487425       0.060976       0.000454

-------------------------- File Output Summary --------------------------
Writing comma-separated values (CSV) surface files.
Merging connectivities in the Master node.
Merging coordinates in the Master node.
Merging solution in the Master node.
Writing SU2 native restart file.
Writing Paraview ASCII volume solution file.
Writing Paraview ASCII surface solution file.
Writing the forces breakdown file.
-------------------------------------------------------------------------

History file, closed.

------------------------- Solver Postprocessing -------------------------
Deleted CNumerics container.
Deleted CIntegration container.
Deleted CSolver container.
Deleted CIteration container.
Deleted CInterpolator container.
Deleted CTransfer container.
Deleted CGeometry container.
Deleted CFreeFormDefBox class.
Deleted CSurfaceMovement class.
Deleted CVolumetricMovement class.
Deleted CConfig container.
Deleted COutput class.
-------------------------------------------------------------------------

Completed in 14.227641 seconds on 1 core.

------------------------- Exit Success (SU2_CFD) ------------------------

