
-------------------------------------------------------------------------
|    ___ _   _ ___                                                      |
|   / __| | | |_  )   Release 5.0.0  "Raven"                            |
|   \__ \ |_| |/ /                                                      |
|   |___/\___//___|   Suite (Computational Fluid Dynamics Code)         |
|                                                                       |
-------------------------------------------------------------------------
| SU2 Original Developers: Dr. Francisco D. Palacios.                   |
|                          Dr. Thomas D. Economon.                      |
-------------------------------------------------------------------------
| SU2 Developers:                                                       |
| - Prof. Juan J. Alonso's group at Stanford University.                |
| - Prof. Piero Colonna's group at Delft University of Technology.      |
| - Prof. Nicolas R. Gauger's group at Kaiserslautern U. of Technology. |
| - Prof. Alberto Guardone's group at Polytechnic University of Milan.  |
| - Prof. Rafael Palacios' group at Imperial College London.            |
| - Prof. Edwin van der Weide's group at the University of Twente.      |
| - Prof. Vincent Terrapon's group at the University of Liege.          |
-------------------------------------------------------------------------
| Copyright (C) 2012-2017 SU2, the open-source CFD code.                |
|                                                                       |
| SU2 is free software; you can redistribute it and/or                  |
| modify it under the terms of the GNU Lesser General Public            |
| License as published by the Free Software Foundation; either          |
| version 2.1 of the License, or (at your option) any later version.    |
|                                                                       |
| SU2 is distributed in the hope that it will be useful,                |
| but WITHOUT ANY WARRANTY; without even the implied warranty of        |
| MERCHANTABILITY or FITNESS FOR A PARTICULAR PURPOSE. See the GNU      |
| Lesser General Public License for more details.                       |
|                                                                       |
| You should have received a copy of the GNU Lesser General Public      |
| License along with SU2. If not, see <http://www.gnu.org/licenses/>.   |
-------------------------------------------------------------------------

------------------------ Physical Case Definition -----------------------
Compressible Euler equations.
Mach number: 0.8.
Angle of attack (AoA): 1.25 deg, and angle of sideslip (AoS): 0 deg.
Read flow solution from: solution_flow.dat.
Non-Dimensional simulation (P=1.0, Rho=1.0, T=1.0 at the farfield).
The reference length/area (force coefficient) is 1.
The reference length (moment computation) is 1.
Reference origin (moment computation) is (0.25, 0, 0).
Surface(s) where the force coefficients are evaluated: airfoil.
Surface(s) plotted in the output file: airfoil.
Surface(s) affected by the design variables: airfoil.
Input mesh file name: mesh_NACA0012_inv_deform.su2

---------------------- Space Numerical Integration ----------------------
Jameson-Schmidt-Turkel scheme for the flow inviscid terms.
JST viscous coefficients (1st, 2nd & 4th): 0.15, 0.5, 0.02.
The method includes a grid stretching correction (p = 0.3).
Second order integration.
Gradient computation using Green-Gauss theorem.

---------------------- Time Numerical Integration -----------------------
Local time stepping (steady state simulation).
Euler implicit method for the flow equations.
V Multigrid Cycle, with 2 multigrid levels.
Damping factor for the residual restriction: 1.
Damping factor for the correction prolongation: 1.
No CFL adaptation.
Multigrid Level:                       0     1     2
Courant-Friedrichs-Lewy number:       10
MG PreSmooth coefficients:             1     2     3
MG PostSmooth coefficients:            0     0     0
MG CorrecSmooth coefficients:          0     0     0

------------------------- Convergence Criteria --------------------------
Maximum number of iterations: 1000.
Reduce the density residual 6 orders of magnitude.
The minimum bound for the density residual is 10^(-13).
Start convergence criteria at iteration 10.

-------------------------- Output Information ---------------------------
Writing a flow solution every 250 iterations.
Writing the convergence history every 1 iterations.
The output file format is Tecplot ASCII (.dat).
Convergence history file name: history_direct.
Forces breakdown file name: forces_breakdown.dat.
Surface flow coefficients file name: surface_flow.
Flow variables file name: flow.
Restart flow file name: restart_flow.dat.

------------------- Config File Boundary Information --------------------
Euler wall boundary marker(s): airfoil.
Far-field boundary marker(s): farfield.

---------------------- Read Grid File Information -----------------------
Two dimensional problem.
5233 points before parallel partitioning.
Performing linear partitioning of the grid nodes.
10216 interior elements before parallel partitioning.
Calling the partitioning functions.
Building the graph adjacency structure.
Distributing elements across all ranks.
2 surface markers.
200 boundary elements in index 0 (Marker = airfoil).
50 boundary elements in index 1 (Marker = farfield).
Calling ParMETIS...
Finished partitioning using ParMETIS (547 edge cuts).
Communicating partition data and creating halo layers.
10763 interior elements including halo cells. 
10763 triangles.
5796 vertices including ghost points. 
Establishing MPI communication patterns.

------------------------- Geometry Preprocessing ------------------------
Setting point connectivity.
Renumbering points (Reverse Cuthill McKee Ordering).
Recomputing point connectivity.
Setting element connectivity.
Checking the numerical grid orientation.
Identifying edges and vertices.
Computing centers of gravity.
Setting the control volume structure.
Area of the computational grid: 1.3e+03.
Searching for the closest normal neighbors to the surfaces.
Compute the surface curvature.
Max K: 7.84e+03. Mean K: 35.6. Standard deviation K: 494.
Checking for periodicity.
Setting the multigrid structure.
MG level: 0 -> CVs: 5796. Agglomeration rate 1/1.00. CFL 10.
MG level: 1 -> CVs: 1800. Agglomeration rate 1/3.22. CFL 8.36.
MG level: 2 -> CVs: 626. Agglomeration rate 1/2.88. CFL 7.39.
Computing wall distances.
Wetted area = 2.03 m.
Area projection in the x-plane = 0.107 m, y-plane = 1 m.

------------------------- Driver information --------------------------
A Fluid driver has been instantiated.

------------------------ Iteration Preprocessing ------------------------
Zone 1: Euler/Navier-Stokes/RANS flow iteration.

------------------------- Solver Preprocessing --------------------------
Inviscid flow: Computing density based on free-stream
temperature and pressure using the ideal gas law.
Force coefficients computed using free-stream values.
-- Input conditions:
Fluid Model: STANDARD_AIR 
Specific gas constant: 287.058 N.m/kg.K.
Specific gas constant (non-dim): 1
Specific Heat Ratio: 1.4
Free-stream static pressure: 101325 Pa.
Free-stream total pressure: 154454 Pa.
Free-stream temperature: 288.15 K.
Free-stream density: 1.22498 kg/m^3.
Free-stream velocity: (272.173, 5.93883) m/s. Magnitude: 272.238 m/s (529.186 KTS).
Free-stream total energy per unit mass: 243846 m^2/s^2.
-- Reference values:
Reference specific gas constant: 287.058 N.m/kg.K.
Reference pressure: 101325 Pa.
Reference temperature: 288.15 K.
Reference density: 1.22498 kg/m^3.
Reference velocity: 287.603 m/s.
Reference energy per unit mass: 82715.8 m^2/s^2.
-- Resulting non-dimensional state:
Mach number (non-dim): 0.8
Specific gas constant (non-dim): 1
Free-stream temperature (non-dim): 1
Free-stream pressure (non-dim): 1
Free-stream density (non-dim): 1
Free-stream velocity (non-dim): (0.946348, 0.0206494). Magnitude: 0.946573
Free-stream total energy per unit mass (non-dim): 2.948

Initialize Jacobian structure (Euler). MG level: 0.
Initialize Jacobian structure (Euler). MG level: 1.
Initialize Jacobian structure (Euler). MG level: 2.

----------------- Integration and Numerics Preprocessing ----------------
Integration Preprocessing.
Numerics Preprocessing.

------------------------------ Begin Solver -----------------------------

---------------------- Local Time Stepping Summary ----------------------
MG level: 0 -> Min. DT: 0.000497793. Max. DT: 3.62844. CFL: 10.
MG level: 1 -> Min. DT: 0.000799987. Max. DT: 5.71088. CFL: 8.35917.
MG level: 2 -> Min. DT: 0.00155927. Max. DT: 8.31023. CFL: 7.39444.
-------------------------------------------------------------------------

----------------------- Residual Evolution Summary ----------------------
log10[Maximum residual]: -4.64541.
Maximum residual point 105, located at (0.00752, 0.0117061).
-------------------------------------------------------------------------

 Iter    Time(s)     Res[Rho]     Res[RhoE]      CL(Total)      CD(Total)
 3273   0.017389    -5.748001     -5.151622       0.066508       0.001320
 3274   0.017146    -5.805938     -5.202607       0.066240       0.001028
 3275   0.017005    -5.808581     -5.208621       0.066052       0.000920
 3276   0.016979    -5.776603     -5.173005       0.065828       0.000827
 3277   0.016844    -5.734121     -5.128677       0.065574       0.000755
 3278   0.016823    -5.701164     -5.097807       0.065287       0.000705
 3279   0.016990    -5.671904     -5.069642       0.064998       0.000663
 3280   0.016866    -5.644805     -5.041653       0.064726       0.000628
 3281   0.016703    -5.626718     -5.022984       0.064479       0.000600
 3282   0.016721    -5.616135     -5.012116       0.064259       0.000577
 3283   0.017227    -5.611893     -5.007742       0.064064       0.000559
 3284   0.017249    -5.612502     -5.008271       0.063890       0.000545
 3285   0.017166    -5.616207     -5.011930       0.063733       0.000536
 3286   0.017093    -5.621606     -5.017360       0.063589       0.000529
 3287   0.017082    -5.627885     -5.023760       0.063457       0.000523
 3288   0.017044    -5.634536     -5.030528       0.063338       0.000520
 3289   0.017089    -5.641052     -5.036960       0.063230       0.000517
 3290   0.017021    -5.646892     -5.042286       0.063131       0.000515
 3291   0.017029    -5.651689     -5.045993       0.063041       0.000513
 3292   0.016981    -5.655416     -5.048075       0.062959       0.000512
 3293   0.016914    -5.658465     -5.049085       0.062884       0.000510
 3294   0.016874    -5.661471     -5.049878       0.062814       0.000509
 3295   0.016855    -5.665210     -5.051429       0.062751       0.000508
 3296   0.016821    -5.670558     -5.054772       0.062693       0.000507
 3297   0.016797    -5.678587     -5.061102       0.062640       0.000504
 3298   0.016782    -5.690694     -5.071933       0.062592       0.000501
 3299   0.017007    -5.708691     -5.089217       0.062546       0.000497
 3300   0.017347    -5.734972     -5.115529       0.062503       0.000491
 3301   0.017634    -5.772934     -5.154548       0.062461       0.000485
 3302   0.017765    -5.827060     -5.211188       0.062418       0.000477
 3303   0.017763    -5.897242     -5.285611       0.062373       0.000469
 3304   0.017729    -5.958191     -5.350634       0.062319       0.000462
 3305   0.017703    -5.991897     -5.386746       0.062253       0.000456
 3306   0.017652    -6.013428     -5.410657       0.062182       0.000450
 3307   0.017591    -6.031894     -5.432196       0.062108       0.000446
 3308   0.017556    -6.046671     -5.449992       0.062035       0.000442
 3309   0.017603    -6.054551     -5.459952       0.061963       0.000440
 3310   0.017575    -6.057809     -5.464680       0.061894       0.000437
 3311   0.017541    -6.060135     -5.468469       0.061827       0.000434
 3312   0.017616    -6.062327     -5.472202       0.061764       0.000432

---------------------- Local Time Stepping Summary ----------------------
MG level: 0 -> Min. DT: 0.000497843. Max. DT: 3.62845. CFL: 10.
MG level: 1 -> Min. DT: 0.000800035. Max. DT: 5.71092. CFL: 8.35917.
MG level: 2 -> Min. DT: 0.00155949. Max. DT: 8.31028. CFL: 7.39444.
-------------------------------------------------------------------------

----------------------- Residual Evolution Summary ----------------------
log10[Maximum residual]: -5.12266.
Maximum residual point 1582, located at (0.537362, 0.217675).
-------------------------------------------------------------------------

 Iter    Time(s)     Res[Rho]     Res[RhoE]      CL(Total)      CD(Total)
 3313   0.017655    -6.063464     -5.474764       0.061705       0.000430
 3314   0.017631    -6.063369     -5.475879       0.061650       0.000429
 3315   0.017804    -6.062584     -5.476085       0.061598       0.000429
 3316   0.017764    -6.061472     -5.475718       0.061551       0.000429
 3317   0.017730    -6.060250     -5.474990       0.061508       0.000430
 3318   0.017701    -6.059294     -5.474317       0.061469       0.000430
 3319   0.017672    -6.058990     -5.474143       0.061433       0.000431
 3320   0.017642    -6.059608     -5.474787       0.061400       0.000432
 3321   0.017608    -6.061381     -5.476533       0.061370       0.000433
 3322   0.017589    -6.064540     -5.479666       0.061341       0.000434
 3323   0.017589    -6.069272     -5.484429       0.061315       0.000434
 3324   0.017561    -6.075727     -5.491029       0.061290       0.000435
 3325   0.017539    -6.084050     -5.499672       0.061267       0.000435
 3326   0.017523    -6.094380     -5.510565       0.061245       0.000436
 3327   0.017487    -6.106828     -5.523888       0.061224       0.000436
 3328   0.017459    -6.121480     -5.539799       0.061204       0.000437
 3329   0.017430    -6.138415     -5.558449       0.061185       0.000437
 3330   0.017407    -6.157715     -5.579999       0.061166       0.000437
 3331   0.017392    -6.179484     -5.604641       0.061148       0.000438
 3332   0.017377    -6.203878     -5.632625       0.061131       0.000438
 3333   0.017349    -6.231111     -5.664276       0.061115       0.000438
 3334   0.017331    -6.261446     -5.699972       0.061100       0.000439
 3335   0.017307    -6.295056     -5.739969       0.061085       0.000440
 3336   0.017281    -6.331803     -5.784087       0.061071       0.000440
 3337   0.017274    -6.370455     -5.830622       0.061057       0.000441
 3338   0.017264    -6.406794     -5.873721       0.061045       0.000442
 3339   0.017273    -6.430914     -5.900008       0.061035       0.000443
 3340   0.017260    -6.432429     -5.897109       0.061027       0.000444
 3341   0.017267    -6.419966     -5.878586       0.061021       0.000445
 3342   0.017253    -6.407885     -5.862161       0.061017       0.000447
 3343   0.017247    -6.400479     -5.851654       0.061013       0.000448
 3344   0.017223    -6.397637     -5.846710       0.061011       0.000449
 3345   0.017209    -6.399721     -5.848043       0.061009       0.000450
 3346   0.017278    -6.407683     -5.856898       0.061006       0.000451
 3347   0.017280    -6.419173     -5.870209       0.061004       0.000452
 3348   0.017270    -6.431050     -5.883881       0.061002       0.000452
 3349   0.017250    -6.441452     -5.895519       0.061000       0.000453
 3350   0.017240    -6.449427     -5.903961       0.060998       0.000454
 3351   0.017220    -6.455792     -5.910388       0.060997       0.000454
 3352   0.017206    -6.461748     -5.916388       0.060996       0.000454

---------------------- Local Time Stepping Summary ----------------------
MG level: 0 -> Min. DT: 0.00049779. Max. DT: 3.62845. CFL: 10.
MG level: 1 -> Min. DT: 0.00080001. Max. DT: 5.71093. CFL: 8.35917.
MG level: 2 -> Min. DT: 0.00155933. Max. DT: 8.31028. CFL: 7.39444.
-------------------------------------------------------------------------

----------------------- Residual Evolution Summary ----------------------
log10[Maximum residual]: -5.30124.
Maximum residual point 1455, located at (0.459939, 0.18775).
-------------------------------------------------------------------------

 Iter    Time(s)     Res[Rho]     Res[RhoE]      CL(Total)      CD(Total)
 3353   0.017190    -6.467941     -5.922704       0.060995       0.000455
 3354   0.017173    -6.474536     -5.929447       0.060994       0.000455
 3355   0.017162    -6.481631     -5.936704       0.060993       0.000455
 3356   0.017147    -6.489335     -5.944647       0.060992       0.000455
 3357   0.017242    -6.497771     -5.953469       0.060991       0.000455
 3358   0.017337    -6.507068     -5.963350       0.060990       0.000454
 3359   0.017379    -6.517393     -5.974500       0.060989       0.000454
 3360   0.017388    -6.528980     -5.987204       0.060989       0.000454
 3361   0.017386    -6.542056     -6.001722       0.060988       0.000454
 3362   0.017367    -6.556781     -6.018224       0.060987       0.000454
 3363   0.017353    -6.573234     -6.036773       0.060987       0.000454
 3364   0.017338    -6.591403     -6.057324       0.060986       0.000454
 3365   0.017323    -6.611199     -6.079748       0.060986       0.000454
 3366   0.017309    -6.632434     -6.103791       0.060986       0.000454
 3367   0.017297    -6.654807     -6.129075       0.060986       0.000454
 3368   0.017310    -6.677645     -6.154774       0.060986       0.000454
 3369   0.017304    -6.699595     -6.179176       0.060987       0.000454
 3370   0.017297    -6.717776     -6.198162       0.060987       0.000454
 3371   0.017325    -6.729231     -6.208054       0.060988       0.000454
 3372   0.017344    -6.733719     -6.209761       0.060989       0.000454
 3373   0.017345    -6.731597     -6.203962       0.060990       0.000455
 3374   0.017333    -6.727376     -6.196627       0.060990       0.000455
 3375   0.017321    -6.724332     -6.191726       0.060991       0.000455
 3376   0.017320    -6.723823     -6.190482       0.060991       0.000455
 3377   0.017318    -6.726165     -6.192924       0.060991       0.000455
 3378   0.017311    -6.731612     -6.199216       0.060991       0.000455
 3379   0.017296    -6.740235     -6.209347       0.060991       0.000455
 3380   0.017285    -6.751834     -6.222980       0.060991       0.000455
 3381   0.017297    -6.766168     -6.239745       0.060991       0.000455
 3382   0.017288    -6.783155     -6.259491       0.060990       0.000455
 3383   0.017276    -6.802775     -6.282165       0.060990       0.000455
 3384   0.017270    -6.824985     -6.307655       0.060989       0.000455
 3385   0.017259    -6.849382     -6.335346       0.060989       0.000454
 3386   0.017251    -6.874759     -6.363593       0.060988       0.000454
 3387   0.017241    -6.899388     -6.390134       0.060988       0.000454
 3388   0.017232    -6.922035     -6.413569       0.060988       0.000454
 3389   0.017225    -6.942266     -6.433678       0.060987       0.000454
 3390   0.017217    -6.960439     -6.451228       0.060987       0.000454
 3391   0.017211    -6.977947     -6.468302       0.060986       0.000454
 3392   0.017207    -6.996524     -6.487243       0.060985       0.000454

---------------------- Local Time Stepping Summary ----------------------
MG level: 0 -> Min. DT: 0.000497793. Max. DT: 3.62845. CFL: 10.
MG level: 1 -> Min. DT: 0.000800013. Max. DT: 5.71093. CFL: 8.35917.
MG level: 2 -> Min. DT: 0.00155935. Max. DT: 8.31028. CFL: 7.39444.
-------------------------------------------------------------------------

----------------------- Residual Evolution Summary ----------------------
log10[Maximum residual]: -5.87242.
Maximum residual point 667, located at (0.569741, 0.0916933).
-------------------------------------------------------------------------

 Iter    Time(s)     Res[Rho]     Res[RhoE]      CL(Total)      CD(Total)
 3393   0.017199    -7.016463     -6.508061       0.060984       0.000454
 3394   0.017195    -7.036809     -6.529029       0.060983       0.000454
 3395   0.017189    -7.057021     -6.549442       0.060981       0.000454
 3396   0.017183    -7.076630     -6.568857       0.060980       0.000454
 3397   0.017176    -7.095484     -6.587246       0.060979       0.000454
 3398   0.017170    -7.113627     -6.604816       0.060977       0.000454
 3399   0.017161    -7.131068     -6.621641       0.060975       0.000454
 3400   0.017160    -7.148276     -6.638613       0.060973       0.000454
 3401   0.017152    -7.168897     -6.660603       0.060972       0.000454
 3402   0.017147    -7.175789     -6.662253       0.060970       0.000454
 3403   0.017141    -7.204141     -6.697048       0.060968       0.000454
 3404   0.017136    -7.223287     -6.716342       0.060966       0.000454
 3405   0.017126    -7.238506     -6.728846       0.060965       0.000454
 3406   0.017120    -7.263735     -6.758126       0.060963       0.000454
 3407   0.017113    -7.285248     -6.780161       0.060962       0.000454
 3408   0.017107    -7.306841     -6.801764       0.060960       0.000454
 3409   0.017101    -7.326131     -6.820274       0.060959       0.000454
 3410   0.017095    -7.346398     -6.840354       0.060958       0.000454
 3411   0.017087    -7.365178     -6.858559       0.060957       0.000454
 3412   0.017078    -7.381840     -6.873700       0.060956       0.000454
 3413   0.017071    -7.400937     -6.892825       0.060955       0.000454
 3414   0.017069    -7.420824     -6.913140       0.060955       0.000454
 3415   0.017076    -7.439631     -6.931337       0.060954       0.000454
 3416   0.017153    -7.458816     -6.950064       0.060954       0.000454
 3417   0.017210    -7.479801     -6.971476       0.060953       0.000454
 3418   0.017248    -7.502114     -6.994593       0.060953       0.000454
 3419   0.017251    -7.525305     -7.018493       0.060953       0.000454
 3420   0.017249    -7.549557     -7.043518       0.060952       0.000454
 3421   0.017245    -7.575081     -7.070050       0.060952       0.000454
 3422   0.017237    -7.601672     -7.097720       0.060952       0.000454
 3423   0.017232    -7.628547     -7.125367       0.060952       0.000454
 3424   0.017221    -7.655405     -7.152724       0.060952       0.000454
 3425   0.017214    -7.682626     -7.180504       0.060952       0.000454
 3426   0.017205    -7.710566     -7.209188       0.060952       0.000454
 3427   0.017216    -7.739066     -7.238413       0.060952       0.000454
 3428   0.017206    -7.768207     -7.268268       0.060952       0.000454
 3429   0.017219    -7.798073     -7.298945       0.060952       0.000454
 3430   0.017235    -7.828704     -7.330416       0.060952       0.000454
 3431   0.017235    -7.859290     -7.361401       0.060953       0.000454
 3432   0.017237    -7.888927     -7.390716       0.060953       0.000454

---------------------- Local Time Stepping Summary ----------------------
MG level: 0 -> Min. DT: 0.000497795. Max. DT: 3.62845. CFL: 10.
MG level: 1 -> Min. DT: 0.000800008. Max. DT: 5.71093. CFL: 8.35917.
MG level: 2 -> Min. DT: 0.00155935. Max. DT: 8.31028. CFL: 7.39444.
-------------------------------------------------------------------------

----------------------- Residual Evolution Summary ----------------------
log10[Maximum residual]: -6.69332.
Maximum residual point 357, located at (0.520334, 0.0602098).
-------------------------------------------------------------------------

 Iter    Time(s)     Res[Rho]     Res[RhoE]      CL(Total)      CD(Total)
 3433   0.017229    -7.917140     -7.417961       0.060953       0.000454
 3434   0.017222    -7.942695     -7.441644       0.060953       0.000454
 3435   0.017213    -7.969101     -7.467434       0.060953       0.000454
 3436   0.017206    -7.997585     -7.496717       0.060953       0.000454
 3437   0.017203    -8.026381     -7.525986       0.060953       0.000454
 3438   0.017195    -8.056026     -7.556191       0.060953       0.000454
 3439   0.017191    -8.085800     -7.586300       0.060954       0.000454
 3440   0.017189    -8.115359     -7.615889       0.060954       0.000454
 3441   0.017185    -8.145116     -7.645709       0.060954       0.000454
 3442   0.017180    -8.175328     -7.676168       0.060954       0.000454
 3443   0.017174    -8.205880     -7.707011       0.060954       0.000454
 3444   0.017169    -8.236291     -7.737512       0.060954       0.000454
 3445   0.017160    -8.265710     -7.766496       0.060954       0.000454
 3446   0.017153    -8.293517     -7.793269       0.060955       0.000454
 3447   0.017147    -8.319906     -7.818464       0.060955       0.000454
 3448   0.017138    -8.346524     -7.844667       0.060955       0.000454
 3449   0.017137    -8.373712     -7.871873       0.060955       0.000454
 3450   0.017131    -8.400723     -7.898634       0.060955       0.000454
 3451   0.017138    -8.429476     -7.928007       0.060955       0.000454
 3452   0.017134    -8.458344     -7.957276       0.060955       0.000454
 3453   0.017138    -8.485027     -7.982978       0.060956       0.000454
 3454   0.017137    -8.510018     -8.006575       0.060956       0.000454
 3455   0.017132    -8.534406     -8.029852       0.060956       0.000454
 3456   0.017126    -8.556625     -8.050435       0.060956       0.000454
 3457   0.017122    -8.578228     -8.070724       0.060956       0.000454
 3458   0.017118    -8.597602     -8.088160       0.060956       0.000454
 3459   0.017116    -8.617438     -8.106840       0.060957       0.000454
 3460   0.017109    -8.637343     -8.125967       0.060957       0.000454
 3461   0.017106    -8.654207     -8.140809       0.060957       0.000454
 3462   0.017100    -8.669843     -8.154637       0.060957       0.000454
 3463   0.017097    -8.687710     -8.172314       0.060957       0.000454
 3464   0.017089    -8.704886     -8.188929       0.060957       0.000454
 3465   0.017083    -8.719646     -8.202097       0.060957       0.000454
 3466   0.017079    -8.734587     -8.216055       0.060958       0.000454
 3467   0.017073    -8.749829     -8.230715       0.060958       0.000454
 3468   0.017069    -8.760616     -8.239235       0.060958       0.000454
 3469   0.017063    -8.767506     -8.243092       0.060958       0.000454
 3470   0.017057    -8.775832     -8.249888       0.060958       0.000454
 3471   0.017051    -8.785912     -8.259445       0.060958       0.000454
 3472   0.017047    -8.793684     -8.265756       0.060958       0.000454

---------------------- Local Time Stepping Summary ----------------------
MG level: 0 -> Min. DT: 0.000497793. Max. DT: 3.62845. CFL: 10.
MG level: 1 -> Min. DT: 0.000800009. Max. DT: 5.71093. CFL: 8.35917.
MG level: 2 -> Min. DT: 0.00155934. Max. DT: 8.31028. CFL: 7.39444.
-------------------------------------------------------------------------

----------------------- Residual Evolution Summary ----------------------
log10[Maximum residual]: -7.56159.
Maximum residual point 357, located at (0.520334, 0.0602098).
-------------------------------------------------------------------------

 Iter    Time(s)     Res[Rho]     Res[RhoE]      CL(Total)      CD(Total)
 3473   0.017044    -8.799617     -8.269773       0.060958       0.000454
 3474   0.017044    -8.807793     -8.277224       0.060959       0.000454
 3475   0.017086    -8.817960     -8.287441       0.060959       0.000454
 3476   0.017124    -8.826487     -8.295246       0.060959       0.000454
 3477   0.017156    -8.833639     -8.301214       0.060959       0.000454
 3478   0.017159    -8.843153     -8.310524       0.060959       0.000454
 3479   0.017161    -8.855256     -8.323277       0.060959       0.000454
 3480   0.017159    -8.866662     -8.334817       0.060959       0.000454
 3481   0.017155    -8.877138     -8.344947       0.060959       0.000454
 3482   0.017149    -8.890035     -8.358322       0.060959       0.000454
 3483   0.017145    -8.905232     -8.374685       0.060960       0.000454
 3484   0.017141    -8.918841     -8.388640       0.060960       0.000454
 3485   0.017135    -8.931165     -8.400748       0.060960       0.000454
 3486   0.017145    -8.946255     -8.416627       0.060960       0.000454
 3487   0.017146    -8.962913     -8.434554       0.060960       0.000454
 3488   0.017160    -8.976544     -8.448161       0.060960       0.000454
 3489   0.017172    -8.989597     -8.460955       0.060960       0.000454
 3490   0.017176    -9.006502     -8.479083       0.060960       0.000454
 3491   0.017176    -9.023299     -8.496969       0.060960       0.000454
 3492   0.017170    -9.035890     -8.508932       0.060960       0.000454
 3493   0.017167    -9.050280     -8.523405       0.060960       0.000454
 3494   0.017162    -9.068818     -8.543672       0.060960       0.000454
 3495   0.017157    -9.083950     -8.559081       0.060960       0.000454
 3496   0.017153    -9.095832     -8.569932       0.060960       0.000454
 3497   0.017150    -9.112697     -8.587762       0.060961       0.000454
 3498   0.017148    -9.131033     -8.607662       0.060961       0.000454
 3499   0.017148    -9.143113     -8.618735       0.060961       0.000454
 3500   0.017142    -9.156061     -8.631051       0.060961       0.000454
 3501   0.017139    -9.174867     -8.651647       0.060961       0.000454
 3502   0.017134    -9.190180     -8.667315       0.060961       0.000454
 3503   0.017130    -9.200279     -8.675712       0.060961       0.000454
 3504   0.017126    -9.215653     -8.691546       0.060961       0.000454
 3505   0.017122    -9.233684     -8.711206       0.060961       0.000454
 3506   0.017119    -9.244738     -8.721098       0.060961       0.000454
 3507   0.017113    -9.254937     -8.729902       0.060961       0.000454
 3508   0.017109    -9.270868     -8.746871       0.060961       0.000454
 3509   0.017106    -9.284199     -8.760380       0.060961       0.000454
 3510   0.017101    -9.291890     -8.766184       0.060961       0.000454
 3511   0.017095    -9.301950     -8.775465       0.060961       0.000454
 3512   0.017092    -9.313655     -8.787350       0.060961       0.000454

---------------------- Local Time Stepping Summary ----------------------
MG level: 0 -> Min. DT: 0.000497792. Max. DT: 3.62845. CFL: 10.
MG level: 1 -> Min. DT: 0.000800009. Max. DT: 5.71093. CFL: 8.35917.
MG level: 2 -> Min. DT: 0.00155934. Max. DT: 8.31028. CFL: 7.39444.
-------------------------------------------------------------------------

----------------------- Residual Evolution Summary ----------------------
log10[Maximum residual]: -8.14251.
Maximum residual point 407, located at (0.551941, 0.0589875).
-------------------------------------------------------------------------

 Iter    Time(s)     Res[Rho]     Res[RhoE]      CL(Total)      CD(Total)
 3513   0.017087    -9.322464     -8.795400       0.060961       0.000454
 3514   0.017086    -9.329533     -8.801175       0.060961       0.000454
 3515   0.017080    -9.338332     -8.809479       0.060961       0.000454
 3516   0.017079    -9.348517     -8.819764       0.060961       0.000454
 3517   0.017073    -9.357969     -8.828989       0.060961       0.000454
 3518   0.017069    -9.366855     -8.837375       0.060961       0.000454
 3519   0.017065    -9.378161     -8.848954       0.060961       0.000454
 3520   0.017059    -9.391260     -8.862809       0.060961       0.000454
 3521   0.017055    -9.403004     -8.874631       0.060961       0.000454
 3522   0.017049    -9.414587     -8.886096       0.060961       0.000454
 3523   0.017045    -9.430066     -8.902655       0.060961       0.000454

-------------------------- File Output Summary --------------------------
Writing comma-separated values (CSV) surface files.
Merging coordinates in the Master node.
Merging solution in the Master node.
Writing SU2 native restart file.
Writing the forces breakdown file.
-------------------------------------------------------------------------

 3524   0.017245    -9.444843     -8.918055       0.060961       0.000454
 3525   0.017245    -9.456982     -8.929747       0.060961       0.000454
 3526   0.017243    -9.474256     -8.948204       0.060961       0.000454
 3527   0.017239    -9.492055     -8.967289       0.060961       0.000454
 3528   0.017236    -9.499911     -8.973268       0.060961       0.000454
 3529   0.017232    -9.513053     -8.986207       0.060962       0.000454
 3530   0.017234    -9.535995     -9.013080       0.060962       0.000454
 3531   0.017261    -9.547014     -9.022541       0.060962       0.000454
 3532   0.017293    -9.580132     -9.062286       0.060962       0.000454
 3533   0.017318    -9.598414     -9.080616       0.060962       0.000454
 3534   0.017321    -9.597428     -9.073279       0.060962       0.000454
 3535   0.017320    -9.637778     -9.123358       0.060962       0.000454
 3536   0.017316    -9.659767     -9.147229       0.060962       0.000454
 3537   0.017314    -9.666936     -9.149065       0.060962       0.000454
 3538   0.017311    -9.704504     -9.195386       0.060962       0.000454
 3539   0.017306    -9.715220     -9.201749       0.060962       0.000454
 3540   0.017302    -9.729448     -9.213553       0.060962       0.000454
 3541   0.017298    -9.750494     -9.237215       0.060962       0.000454
 3542   0.017294    -9.764607     -9.249491       0.060962       0.000454
 3543   0.017303    -9.780896     -9.265515       0.060962       0.000454
 3544   0.017312    -9.784751     -9.264898       0.060962       0.000454
 3545   0.017321    -9.792932     -9.271548       0.060962       0.000454
 3546   0.017320    -9.808452     -9.288668       0.060962       0.000454
 3547   0.017324    -9.825300     -9.306751       0.060962       0.000454
 3548   0.017321    -9.841661     -9.323298       0.060962       0.000454
 3549   0.017316    -9.856190     -9.338078       0.060962       0.000454
 3550   0.017314    -9.858357     -9.335494       0.060962       0.000454
 3551   0.017309    -9.891617     -9.378924       0.060962       0.000454
 3552   0.017304    -9.903888     -9.388435       0.060962       0.000454

---------------------- Local Time Stepping Summary ----------------------
MG level: 0 -> Min. DT: 0.000497792. Max. DT: 3.62845. CFL: 10.
MG level: 1 -> Min. DT: 0.000800009. Max. DT: 5.71093. CFL: 8.35917.
MG level: 2 -> Min. DT: 0.00155934. Max. DT: 8.31028. CFL: 7.39444.
-------------------------------------------------------------------------

----------------------- Residual Evolution Summary ----------------------
log10[Maximum residual]: -8.76984.
Maximum residual point 1072, located at (0.51579, 0.136093).
-------------------------------------------------------------------------

 Iter    Time(s)     Res[Rho]     Res[RhoE]      CL(Total)      CD(Total)
 3553   0.017298    -9.933382     -9.422274       0.060962       0.000454
 3554   0.017298    -9.952704     -9.440994       0.060962       0.000454
 3555   0.017300    -9.945365     -9.423856       0.060962       0.000454
 3556   0.017296    -9.973976     -9.460811       0.060962       0.000454
 3557   0.017292    -9.990655     -9.477644       0.060962       0.000454
 3558   0.017289   -10.024390     -9.516798       0.060962       0.000454
 3559   0.017285   -10.040361     -9.530211       0.060962       0.000454
 3560   0.017288   -10.054563     -9.542026       0.060962       0.000454
 3561   0.017284   -10.068815     -9.556352       0.060962       0.000454
 3562   0.017284   -10.089159     -9.578733       0.060962       0.000454
 3563   0.017279   -10.111294     -9.601726       0.060962       0.000454
 3564   0.017279   -10.138743     -9.632093       0.060962       0.000454
 3565   0.017275   -10.157273     -9.648713       0.060962       0.000454
 3566   0.017272   -10.181802     -9.675014       0.060962       0.000454
 3567   0.017268   -10.198764     -9.690215       0.060962       0.000454
 3568   0.017264   -10.222498     -9.715848       0.060962       0.000454
 3569   0.017259   -10.235093     -9.724610       0.060962       0.000454
 3570   0.017256   -10.257897     -9.749795       0.060962       0.000454
 3571   0.017252   -10.277839     -9.770183       0.060962       0.000454
 3572   0.017247   -10.292531     -9.782468       0.060962       0.000454
 3573   0.017244   -10.313715     -9.805447       0.060962       0.000454
 3574   0.017241   -10.336001     -9.829265       0.060962       0.000454
 3575   0.017237   -10.354999     -9.847287       0.060962       0.000454
 3576   0.017234   -10.369793     -9.859662       0.060962       0.000454
 3577   0.017231   -10.382104     -9.869550       0.060962       0.000454
 3578   0.017228   -10.400472     -9.889100       0.060962       0.000454
 3579   0.017225   -10.419031     -9.908269       0.060962       0.000454
 3580   0.017221   -10.431605     -9.918012       0.060962       0.000454
 3581   0.017221   -10.444942     -9.929962       0.060962       0.000454
 3582   0.017218   -10.461398     -9.946868       0.060962       0.000454
 3583   0.017215   -10.471375     -9.954178       0.060962       0.000454
 3584   0.017212   -10.484363     -9.966239       0.060962       0.000454
 3585   0.017208   -10.504544     -9.988788       0.060962       0.000454
 3586   0.017205   -10.517547    -10.000154       0.060962       0.000454
 3587   0.017201   -10.532715    -10.014685       0.060962       0.000454
 3588   0.017200   -10.556290    -10.041378       0.060962       0.000454
 3589   0.017219   -10.566499    -10.048242       0.060962       0.000454
 3590   0.017247   -10.577830    -10.057346       0.060962       0.000454
 3591   0.017271   -10.600825    -10.083667       0.060962       0.000454
 3592   0.017275   -10.610342    -10.090269       0.060962       0.000454

---------------------- Local Time Stepping Summary ----------------------
MG level: 0 -> Min. DT: 0.000497792. Max. DT: 3.62845. CFL: 10.
MG level: 1 -> Min. DT: 0.000800009. Max. DT: 5.71093. CFL: 8.35917.
MG level: 2 -> Min. DT: 0.00155934. Max. DT: 8.31028. CFL: 7.39444.
-------------------------------------------------------------------------

----------------------- Residual Evolution Summary ----------------------
log10[Maximum residual]: -9.40436.
Maximum residual point 357, located at (0.520334, 0.0602098).
-------------------------------------------------------------------------

 Iter    Time(s)     Res[Rho]     Res[RhoE]      CL(Total)      CD(Total)
 3593   0.017277   -10.619742    -10.096958       0.060962       0.000454
 3594   0.017279   -10.641708    -10.121943       0.060962       0.000454
 3595   0.017276   -10.654389    -10.133418       0.060962       0.000454
 3596   0.017272   -10.661722    -10.137397       0.060962       0.000454
 3597   0.017273   -10.680977    -10.158470       0.060962       0.000454
 3598   0.017275   -10.697890    -10.176194       0.060962       0.000454
 3599   0.017270   -10.704980    -10.180014       0.060962       0.000454
 3600   0.017270   -10.720887    -10.196262       0.060962       0.000454
 3601   0.017272   -10.742086    -10.219981       0.060962       0.000454
 3602   0.017277   -10.750936    -10.226234       0.060962       0.000454
 3603   0.017290   -10.763147    -10.237201       0.060962       0.000454
 3604   0.017289   -10.785073    -10.261817       0.060962       0.000454
 3605   0.017291   -10.796546    -10.271825       0.060962       0.000454
 3606   0.017286   -10.804898    -10.277680       0.060962       0.000454
 3607   0.017282   -10.825766    -10.300836       0.060962       0.000454
 3608   0.017279   -10.841347    -10.316676       0.060962       0.000454
 3609   0.017276   -10.848029    -10.320381       0.060962       0.000454
 3610   0.017273   -10.864550    -10.337578       0.060962       0.000454
 3611   0.017271   -10.884698    -10.359840       0.060962       0.000454
 3612   0.017267   -10.892923    -10.365740       0.060962       0.000454
 3613   0.017267   -10.905374    -10.377370       0.060962       0.000454
 3614   0.017263   -10.927144    -10.401804       0.060962       0.000454
 3615   0.017259   -10.938831    -10.412399       0.060962       0.000454
 3616   0.017256   -10.947936    -10.419546       0.060962       0.000454
 3617   0.017254   -10.969266    -10.443320       0.060962       0.000454
 3618   0.017251   -10.986184    -10.460974       0.060962       0.000454
 3619   0.017247   -10.992869    -10.464815       0.060962       0.000454
 3620   0.017245   -11.010154    -10.483031       0.060962       0.000454
 3621   0.017241   -11.032693    -10.508455       0.060962       0.000454
 3622   0.017239   -11.040907    -10.514242       0.060962       0.000454
 3623   0.017236   -11.052472    -10.524648       0.060962       0.000454
 3624   0.017233   -11.077563    -10.553575       0.060962       0.000454
 3625   0.017229   -11.089994    -10.564996       0.060962       0.000454
 3626   0.017225   -11.096842    -10.569019       0.060962       0.000454
 3627   0.017222   -11.119057    -10.594015       0.060962       0.000454
 3628   0.017220   -11.140711    -10.618081       0.060962       0.000454
 3629   0.017218   -11.144147    -10.617424       0.060962       0.000454
 3630   0.017214   -11.163579    -10.638386       0.060962       0.000454
 3631   0.017211   -11.190688    -10.670000       0.060962       0.000454
 3632   0.017208   -11.194590    -10.669680       0.060962       0.000454

---------------------- Local Time Stepping Summary ----------------------
MG level: 0 -> Min. DT: 0.000497792. Max. DT: 3.62845. CFL: 10.
MG level: 1 -> Min. DT: 0.000800009. Max. DT: 5.71093. CFL: 8.35917.
MG level: 2 -> Min. DT: 0.00155934. Max. DT: 8.31028. CFL: 7.39444.
-------------------------------------------------------------------------

----------------------- Residual Evolution Summary ----------------------
log10[Maximum residual]: -10.0632.
Maximum residual point 582, located at (0.528994, 0.0758613).
-------------------------------------------------------------------------

 Iter    Time(s)     Res[Rho]     Res[RhoE]      CL(Total)      CD(Total)
 3633   0.017206   -11.209181    -10.683837       0.060962       0.000454
 3634   0.017203   -11.235097    -10.713929       0.060962       0.000454
 3635   0.017204   -11.247780    -10.725386       0.060962       0.000454
 3636   0.017202   -11.254105    -10.728462       0.060962       0.000454
 3637   0.017206   -11.282876    -10.762449       0.060962       0.000454
 3638   0.017215   -11.297627    -10.776732       0.060962       0.000454
 3639   0.017212   -11.301798    -10.776771       0.060962       0.000454
 3640   0.017209   -11.325466    -10.803712       0.060962       0.000454
 3641   0.017206   -11.350652    -10.832658       0.060962       0.000454
 3642   0.017204   -11.350365    -10.826502       0.060962       0.000454
 3643   0.017201   -11.374673    -10.853971       0.060962       0.000454
 3644   0.017200   -11.400540    -10.883815       0.060962       0.000454
 3645   0.017198   -11.401328    -10.878821       0.060962       0.000454
 3646   0.017196   -11.425988    -10.906551       0.060962       0.000454
 3647   0.017204   -11.442418    -10.923281       0.060962       0.000454
 3648   0.017224   -11.451206    -10.929276       0.060962       0.000454
 3649   0.017247   -11.468558    -10.947426       0.060962       0.000454
 3650   0.017260   -11.494042    -10.976973       0.060962       0.000454
 3651   0.017259   -11.496154    -10.973905       0.060962       0.000454
 3652   0.017258   -11.521320    -11.002639       0.060962       0.000454
 3653   0.017258   -11.535493    -11.016274       0.060962       0.000454
 3654   0.017254   -11.552794    -11.033737       0.060962       0.000454
 3655   0.017250   -11.560604    -11.038687       0.060962       0.000454
 3656   0.017247   -11.598104    -11.085750       0.060962       0.000454
 3657   0.017244   -11.597338    -11.077863       0.060962       0.000454
 3658   0.017241   -11.624441    -11.108582       0.060962       0.000454

-------------------------- File Output Summary --------------------------
Writing comma-separated values (CSV) surface files.
Merging coordinates in the Master node.
Merging solution in the Master node.
Writing SU2 native restart file.
Writing the forces breakdown file.
-------------------------------------------------------------------------

History file, closed.

------------------------- Solver Postprocessing -------------------------
Deleted CNumerics container.
Deleted CIntegration container.
Deleted CSolver container.
Deleted CIteration container.
Deleted CInterpolator container.
Deleted CTransfer container.
Deleted CGeometry container.
Deleted CFreeFormDefBox class.
Deleted CSurfaceMovement class.
Deleted CVolumetricMovement class.
Deleted CConfig container.
Deleted COutput class.
-------------------------------------------------------------------------

Completed in 6.713437 seconds on 8 cores.

------------------------- Exit Success (SU2_CFD) ------------------------


-------------------------------------------------------------------------
|    ___ _   _ ___                                                      |
|   / __| | | |_  )   Release 5.0.0  "Raven"                            |
|   \__ \ |_| |/ /                                                      |
|   |___/\___//___|   Suite (Solution Exporting Code)                   |
|                                                                       |
-------------------------------------------------------------------------
| SU2 Original Developers: Dr. Francisco D. Palacios.                   |
|                          Dr. Thomas D. Economon.                      |
-------------------------------------------------------------------------
| SU2 Developers:                                                       |
| - Prof. Juan J. Alonso's group at Stanford University.                |
| - Prof. Piero Colonna's group at Delft University of Technology.      |
| - Prof. Nicolas R. Gauger's group at Kaiserslautern U. of Technology. |
| - Prof. Alberto Guardone's group at Polytechnic University of Milan.  |
| - Prof. Rafael Palacios' group at Imperial College London.            |
| - Prof. Edwin van der Weide's group at the University of Twente.      |
| - Prof. Vincent Terrapon's group at the University of Liege.          |
-------------------------------------------------------------------------
| Copyright (C) 2012-2017 SU2, the open-source CFD code.                |
|                                                                       |
| SU2 is free software; you can redistribute it and/or                  |
| modify it under the terms of the GNU Lesser General Public            |
| License as published by the Free Software Foundation; either          |
| version 2.1 of the License, or (at your option) any later version.    |
|                                                                       |
| SU2 is distributed in the hope that it will be useful,                |
| but WITHOUT ANY WARRANTY; without even the implied warranty of        |
| MERCHANTABILITY or FITNESS FOR A PARTICULAR PURPOSE. See the GNU      |
| Lesser General Public License for more details.                       |
|                                                                       |
| You should have received a copy of the GNU Lesser General Public      |
| License along with SU2. If not, see <http://www.gnu.org/licenses/>.   |
-------------------------------------------------------------------------

------------------------ Physical Case Definition -----------------------
Input mesh file name: mesh_NACA0012_inv_deform.su2

-------------------------- Output Information ---------------------------
The output file format is Tecplot ASCII (.dat).
Flow variables file name: flow.

------------------- Config File Boundary Information --------------------
Euler wall boundary marker(s): airfoil.
Far-field boundary marker(s): farfield.

---------------------- Read Grid File Information -----------------------
Two dimensional problem.
5233 points before parallel partitioning.
Performing linear partitioning of the grid nodes.
10216 interior elements before parallel partitioning.
Calling the partitioning functions.
Building the graph adjacency structure.
Distributing elements across all ranks.
2 surface markers.
200 boundary elements in index 0 (Marker = airfoil).
50 boundary elements in index 1 (Marker = farfield).
Calling ParMETIS...
Finished partitioning using ParMETIS (547 edge cuts).
Communicating partition data and creating halo layers.
10763 interior elements including halo cells. 
10763 triangles.
5796 vertices including ghost points. 
Establishing MPI communication patterns.
Identify vertices.

------------------------- Solution Postprocessing -----------------------
Reading and storing the solution from restart_flow.dat.
Merging connectivities in the Master node.
Merging solution in the Master node.
Writing Tecplot ASCII file (volume grid).
Writing Tecplot ASCII file (surface grid).

Completed in 0.119239 seconds on 8 cores.

------------------------- Exit Success (SU2_SOL) ------------------------

