
-------------------------------------------------------------------------
|    ___ _   _ ___                                                      |
|   / __| | | |_  )   Release 5.0.0  "Raven"                            |
|   \__ \ |_| |/ /                                                      |
|   |___/\___//___|   Suite (Computational Fluid Dynamics Code)         |
|                                                                       |
-------------------------------------------------------------------------
| SU2 Original Developers: Dr. Francisco D. Palacios.                   |
|                          Dr. Thomas D. Economon.                      |
-------------------------------------------------------------------------
| SU2 Developers:                                                       |
| - Prof. Juan J. Alonso's group at Stanford University.                |
| - Prof. Piero Colonna's group at Delft University of Technology.      |
| - Prof. Nicolas R. Gauger's group at Kaiserslautern U. of Technology. |
| - Prof. Alberto Guardone's group at Polytechnic University of Milan.  |
| - Prof. Rafael Palacios' group at Imperial College London.            |
| - Prof. Edwin van der Weide's group at the University of Twente.      |
| - Prof. Vincent Terrapon's group at the University of Liege.          |
-------------------------------------------------------------------------
| Copyright (C) 2012-2017 SU2, the open-source CFD code.                |
|                                                                       |
| SU2 is free software; you can redistribute it and/or                  |
| modify it under the terms of the GNU Lesser General Public            |
| License as published by the Free Software Foundation; either          |
| version 2.1 of the License, or (at your option) any later version.    |
|                                                                       |
| SU2 is distributed in the hope that it will be useful,                |
| but WITHOUT ANY WARRANTY; without even the implied warranty of        |
| MERCHANTABILITY or FITNESS FOR A PARTICULAR PURPOSE. See the GNU      |
| Lesser General Public License for more details.                       |
|                                                                       |
| You should have received a copy of the GNU Lesser General Public      |
| License along with SU2. If not, see <http://www.gnu.org/licenses/>.   |
-------------------------------------------------------------------------

------------------------ Physical Case Definition -----------------------
Compressible Euler equations.
Mach number: 0.8.
Angle of attack (AoA): 1.25 deg, and angle of sideslip (AoS): 0 deg.
Read flow solution from: solution_flow.dat.
Non-Dimensional simulation (P=1.0, Rho=1.0, T=1.0 at the farfield).
The reference length/area (force coefficient) is 1.
The reference length (moment computation) is 1.
Reference origin (moment computation) is (0.25, 0, 0).
Surface(s) where the force coefficients are evaluated: airfoil.
Surface(s) plotted in the output file: airfoil.
Surface(s) affected by the design variables: airfoil.
Input mesh file name: mesh_NACA0012_inv_deform.su2

---------------------- Space Numerical Integration ----------------------
Jameson-Schmidt-Turkel scheme for the flow inviscid terms.
JST viscous coefficients (1st, 2nd & 4th): 0.15, 0.5, 0.02.
The method includes a grid stretching correction (p = 0.3).
Second order integration.
Gradient computation using Green-Gauss theorem.

---------------------- Time Numerical Integration -----------------------
Local time stepping (steady state simulation).
Euler implicit method for the flow equations.
V Multigrid Cycle, with 2 multigrid levels.
Damping factor for the residual restriction: 1.
Damping factor for the correction prolongation: 1.
No CFL adaptation.
Multigrid Level:                       0     1     2
Courant-Friedrichs-Lewy number:       10
MG PreSmooth coefficients:             1     2     3
MG PostSmooth coefficients:            0     0     0
MG CorrecSmooth coefficients:          0     0     0

------------------------- Convergence Criteria --------------------------
Maximum number of iterations: 1000.
Reduce the density residual 6 orders of magnitude.
The minimum bound for the density residual is 10^(-13).
Start convergence criteria at iteration 10.

-------------------------- Output Information ---------------------------
Writing a flow solution every 250 iterations.
Writing the convergence history every 1 iterations.
The output file format is Tecplot ASCII (.dat).
Convergence history file name: history_direct.
Forces breakdown file name: forces_breakdown.dat.
Surface flow coefficients file name: surface_flow.
Flow variables file name: flow.
Restart flow file name: restart_flow.dat.

------------------- Config File Boundary Information --------------------
Euler wall boundary marker(s): airfoil.
Far-field boundary marker(s): farfield.

---------------------- Read Grid File Information -----------------------
Two dimensional problem.
5233 points before parallel partitioning.
Performing linear partitioning of the grid nodes.
10216 interior elements before parallel partitioning.
Calling the partitioning functions.
Building the graph adjacency structure.
Distributing elements across all ranks.
2 surface markers.
200 boundary elements in index 0 (Marker = airfoil).
50 boundary elements in index 1 (Marker = farfield).
Calling ParMETIS...
Finished partitioning using ParMETIS (547 edge cuts).
Communicating partition data and creating halo layers.
10763 interior elements including halo cells. 
10763 triangles.
5796 vertices including ghost points. 
Establishing MPI communication patterns.

------------------------- Geometry Preprocessing ------------------------
Setting point connectivity.
Renumbering points (Reverse Cuthill McKee Ordering).
Recomputing point connectivity.
Setting element connectivity.
Checking the numerical grid orientation.
Identifying edges and vertices.
Computing centers of gravity.
Setting the control volume structure.
Area of the computational grid: 1.3e+03.
Searching for the closest normal neighbors to the surfaces.
Compute the surface curvature.
Max K: 7.84e+03. Mean K: 35.7. Standard deviation K: 494.
Checking for periodicity.
Setting the multigrid structure.
MG level: 0 -> CVs: 5796. Agglomeration rate 1/1.00. CFL 10.
MG level: 1 -> CVs: 1800. Agglomeration rate 1/3.22. CFL 8.36.
MG level: 2 -> CVs: 626. Agglomeration rate 1/2.88. CFL 7.39.
Computing wall distances.
Wetted area = 2.03 m.
Area projection in the x-plane = 0.107 m, y-plane = 1 m.

------------------------- Driver information --------------------------
A Fluid driver has been instantiated.

------------------------ Iteration Preprocessing ------------------------
Zone 1: Euler/Navier-Stokes/RANS flow iteration.

------------------------- Solver Preprocessing --------------------------
Inviscid flow: Computing density based on free-stream
temperature and pressure using the ideal gas law.
Force coefficients computed using free-stream values.
-- Input conditions:
Fluid Model: STANDARD_AIR 
Specific gas constant: 287.058 N.m/kg.K.
Specific gas constant (non-dim): 1
Specific Heat Ratio: 1.4
Free-stream static pressure: 101325 Pa.
Free-stream total pressure: 154454 Pa.
Free-stream temperature: 288.15 K.
Free-stream density: 1.22498 kg/m^3.
Free-stream velocity: (272.173, 5.93883) m/s. Magnitude: 272.238 m/s (529.186 KTS).
Free-stream total energy per unit mass: 243846 m^2/s^2.
-- Reference values:
Reference specific gas constant: 287.058 N.m/kg.K.
Reference pressure: 101325 Pa.
Reference temperature: 288.15 K.
Reference density: 1.22498 kg/m^3.
Reference velocity: 287.603 m/s.
Reference energy per unit mass: 82715.8 m^2/s^2.
-- Resulting non-dimensional state:
Mach number (non-dim): 0.8
Specific gas constant (non-dim): 1
Free-stream temperature (non-dim): 1
Free-stream pressure (non-dim): 1
Free-stream density (non-dim): 1
Free-stream velocity (non-dim): (0.946348, 0.0206494). Magnitude: 0.946573
Free-stream total energy per unit mass (non-dim): 2.948

Initialize Jacobian structure (Euler). MG level: 0.
Initialize Jacobian structure (Euler). MG level: 1.
Initialize Jacobian structure (Euler). MG level: 2.

----------------- Integration and Numerics Preprocessing ----------------
Integration Preprocessing.
Numerics Preprocessing.

------------------------------ Begin Solver -----------------------------

---------------------- Local Time Stepping Summary ----------------------
MG level: 0 -> Min. DT: 0.000497809. Max. DT: 3.6287. CFL: 10.
MG level: 1 -> Min. DT: 0.000799997. Max. DT: 5.71116. CFL: 8.35917.
MG level: 2 -> Min. DT: 0.00155937. Max. DT: 8.31074. CFL: 7.39444.
-------------------------------------------------------------------------

----------------------- Residual Evolution Summary ----------------------
log10[Maximum residual]: -7.3622.
Maximum residual point 105, located at (0.00752, 0.0115481).
-------------------------------------------------------------------------

 Iter    Time(s)     Res[Rho]     Res[RhoE]      CL(Total)      CD(Total)
 5849   0.015132    -8.464774     -7.868395       0.066879       0.000450
 5850   0.015085    -8.522534     -7.919253       0.066880       0.000451
 5851   0.015195    -8.525271     -7.925329       0.066880       0.000451
 5852   0.015110    -8.493340     -7.889762       0.066881       0.000451
 5853   0.016145    -8.450926     -7.845511       0.066881       0.000451
 5854   0.016069    -8.417557     -7.814150       0.066882       0.000451
 5855   0.015853    -8.388615     -7.786352       0.066882       0.000451
 5856   0.015720    -8.361697     -7.758581       0.066883       0.000451
 5857   0.016036    -8.343692     -7.740017       0.066883       0.000451
 5858   0.015892    -8.333099     -7.729153       0.066884       0.000451
 5859   0.015806    -8.328768     -7.724696       0.066884       0.000452
 5860   0.015694    -8.329240     -7.725094       0.066884       0.000452
 5861   0.015644    -8.332802     -7.728613       0.066885       0.000452
 5862   0.015606    -8.338069     -7.733913       0.066885       0.000452
 5863   0.015704    -8.344235     -7.740196       0.066885       0.000452
 5864   0.015623    -8.350795     -7.746865       0.066886       0.000452
 5865   0.015544    -8.357241     -7.753217       0.066886       0.000452
 5866   0.015643    -8.363033     -7.758483       0.066886       0.000452
 5867   0.015967    -8.367787     -7.762139       0.066886       0.000452
 5868   0.016309    -8.371476     -7.764176       0.066886       0.000452
 5869   0.016690    -8.374480     -7.765136       0.066886       0.000452
 5870   0.016877    -8.377436     -7.765873       0.066887       0.000452
 5871   0.016807    -8.381104     -7.767346       0.066887       0.000452
 5872   0.016698    -8.386352     -7.770573       0.066887       0.000452
 5873   0.016609    -8.394229     -7.776726       0.066887       0.000452
 5874   0.016576    -8.406102     -7.787287       0.066887       0.000452
 5875   0.016498    -8.423790     -7.804214       0.066887       0.000452
 5876   0.016416    -8.449762     -7.830171       0.066887       0.000452
 5877   0.016367    -8.487593     -7.869030       0.066887       0.000452
 5878   0.016310    -8.542359     -7.926360       0.066887       0.000452
 5879   0.016280    -8.615462     -8.003991       0.066887       0.000452
 5880   0.016217    -8.679848     -8.072839       0.066887       0.000452
 5881   0.016150    -8.713409     -8.108804       0.066888       0.000452
 5882   0.016098    -8.734627     -8.132375       0.066888       0.000452
 5883   0.016058    -8.753655     -8.154587       0.066888       0.000452
 5884   0.016107    -8.769039     -8.173085       0.066888       0.000452
 5885   0.016061    -8.776639     -8.182701       0.066888       0.000452
 5886   0.016023    -8.779329     -8.186748       0.066888       0.000452
 5887   0.016018    -8.781319     -8.190128       0.066888       0.000452
 5888   0.015973    -8.783261     -8.193555       0.066889       0.000452

---------------------- Local Time Stepping Summary ----------------------
MG level: 0 -> Min. DT: 0.000497809. Max. DT: 3.6287. CFL: 10.
MG level: 1 -> Min. DT: 0.000799997. Max. DT: 5.71116. CFL: 8.35917.
MG level: 2 -> Min. DT: 0.00155937. Max. DT: 8.31074. CFL: 7.39444.
-------------------------------------------------------------------------

----------------------- Residual Evolution Summary ----------------------
log10[Maximum residual]: -7.84863.
Maximum residual point 1582, located at (0.537279, 0.217752).
-------------------------------------------------------------------------

 Iter    Time(s)     Res[Rho]     Res[RhoE]      CL(Total)      CD(Total)
 5889   0.015934    -8.784035     -8.195689       0.066889       0.000452
 5890   0.015902    -8.783565     -8.196372       0.066889       0.000452
 5891   0.015885    -8.782470     -8.196218       0.066889       0.000452
 5892   0.015889    -8.781047     -8.195490       0.066889       0.000452
 5893   0.015907    -8.779489     -8.194366       0.066889       0.000452
 5894   0.016049    -8.778194     -8.193292       0.066889       0.000452
 5895   0.016106    -8.777548     -8.192706       0.066889       0.000452
 5896   0.016247    -8.777798     -8.192903       0.066889       0.000452
 5897   0.016255    -8.779176     -8.194161       0.066889       0.000452
 5898   0.016225    -8.781910     -8.196763       0.066889       0.000452
 5899   0.016200    -8.786172     -8.200932       0.066889       0.000452
 5900   0.016174    -8.792092     -8.206851       0.066889       0.000452
 5901   0.016141    -8.799803     -8.214711       0.066890       0.000452
 5902   0.016116    -8.809424     -8.224693       0.066890       0.000452
 5903   0.016084    -8.821044     -8.236951       0.066890       0.000452
 5904   0.016056    -8.834722     -8.251605       0.066890       0.000452
 5905   0.016032    -8.850506     -8.268770       0.066890       0.000452
 5906   0.016003    -8.868442     -8.288560       0.066890       0.000452
 5907   0.015967    -8.888597     -8.311112       0.066890       0.000452
 5908   0.015945    -8.911079     -8.336616       0.066890       0.000452
 5909   0.015928    -8.936054     -8.365331       0.066890       0.000452
 5910   0.015934    -8.963740     -8.397578       0.066890       0.000452
 5911   0.015952    -8.994373     -8.433699       0.066890       0.000452
 5912   0.015937    -9.028130     -8.473942       0.066890       0.000452
 5913   0.015922    -9.064937     -8.518198       0.066890       0.000452
 5914   0.015905    -9.103791     -8.565034       0.066890       0.000452
 5915   0.015886    -9.141022     -8.609287       0.066890       0.000452
 5916   0.015938    -9.167156     -8.638010       0.066890       0.000452
 5917   0.015916    -9.170389     -8.636665       0.066890       0.000452
 5918   0.015898    -9.155583     -8.614387       0.066890       0.000452
 5919   0.015900    -9.138339     -8.591681       0.066890       0.000452
 5920   0.015907    -9.126927     -8.577414       0.066890       0.000452
 5921   0.015883    -9.122406     -8.571468       0.066890       0.000452
 5922   0.015872    -9.121847     -8.569944       0.066890       0.000452
 5923   0.015848    -9.125779     -8.573901       0.066890       0.000452
 5924   0.015833    -9.134958     -8.584463       0.066890       0.000452
 5925   0.015812    -9.146226     -8.597545       0.066890       0.000452
 5926   0.015806    -9.157974     -8.611091       0.066890       0.000452
 5927   0.015786    -9.168951     -8.623543       0.066890       0.000452
 5928   0.015770    -9.177649     -8.632953       0.066890       0.000452

---------------------- Local Time Stepping Summary ----------------------
MG level: 0 -> Min. DT: 0.000497809. Max. DT: 3.6287. CFL: 10.
MG level: 1 -> Min. DT: 0.000799997. Max. DT: 5.71116. CFL: 8.35917.
MG level: 2 -> Min. DT: 0.00155937. Max. DT: 8.31074. CFL: 7.39444.
-------------------------------------------------------------------------

----------------------- Residual Evolution Summary ----------------------
log10[Maximum residual]: -8.02709.
Maximum residual point 1601, located at (0.506503, 0.218592).
-------------------------------------------------------------------------

 Iter    Time(s)     Res[Rho]     Res[RhoE]      CL(Total)      CD(Total)
 5929   0.015750    -9.184771     -8.640337       0.066890       0.000452
 5930   0.015746    -9.191365     -8.647112       0.066890       0.000452
 5931   0.015775    -9.198091     -8.654067       0.066890       0.000452
 5932   0.015838    -9.205153     -8.661373       0.066890       0.000452
 5933   0.015865    -9.212624     -8.669088       0.066890       0.000452
 5934   0.015848    -9.220592     -8.677349       0.066890       0.000452
 5935   0.015836    -9.229198     -8.686372       0.066890       0.000452
 5936   0.015816    -9.238599     -8.696372       0.066890       0.000452
 5937   0.015799    -9.249011     -8.707626       0.066890       0.000452
 5938   0.015782    -9.260639     -8.720377       0.066890       0.000452
 5939   0.015768    -9.273703     -8.734875       0.066890       0.000452
 5940   0.015751    -9.288344     -8.751265       0.066890       0.000452
 5941   0.015732    -9.304612     -8.769568       0.066890       0.000452
 5942   0.015722    -9.322524     -8.789772       0.066890       0.000452
 5943   0.015708    -9.341984     -8.811724       0.066890       0.000452
 5944   0.015699    -9.362834     -8.835206       0.066890       0.000452
 5945   0.015683    -9.384803     -8.859875       0.066890       0.000452
 5946   0.015670    -9.407343     -8.885044       0.066890       0.000452
 5947   0.015664    -9.429375     -8.909344       0.066890       0.000452
 5948   0.015662    -9.448855     -8.929990       0.066890       0.000452
 5949   0.015648    -9.463118     -8.943402       0.066890       0.000452
 5950   0.015636    -9.470266     -8.947929       0.066890       0.000452
 5951   0.015638    -9.469934     -8.943731       0.066890       0.000452
 5952   0.015623    -9.466408     -8.936693       0.066890       0.000452
 5953   0.015615    -9.463643     -8.931696       0.066890       0.000452
 5954   0.015625    -9.463446     -8.930505       0.066890       0.000452
 5955   0.015614    -9.466107     -8.933047       0.066890       0.000452
 5956   0.015603    -9.472054     -8.939694       0.066890       0.000452
 5957   0.015607    -9.481533     -8.950681       0.066890       0.000452
 5958   0.015599    -9.494322     -8.965624       0.066890       0.000452
 5959   0.015586    -9.509905     -8.983774       0.066890       0.000452
 5960   0.015575    -9.527793     -9.004460       0.066890       0.000452
 5961   0.015563    -9.547976     -9.027667       0.066890       0.000452
 5962   0.015555    -9.570756     -9.053760       0.066890       0.000452
 5963   0.015555    -9.595870     -9.082294       0.066890       0.000452
 5964   0.015548    -9.621897     -9.111269       0.066890       0.000452
 5965   0.015542    -9.646845     -9.138056       0.066890       0.000452
 5966   0.015537    -9.669484     -9.161311       0.066890       0.000452
 5967   0.015524    -9.689371     -9.180818       0.066890       0.000452
 5968   0.015514    -9.706519     -9.196861       0.066890       0.000452

---------------------- Local Time Stepping Summary ----------------------
MG level: 0 -> Min. DT: 0.000497809. Max. DT: 3.6287. CFL: 10.
MG level: 1 -> Min. DT: 0.000799997. Max. DT: 5.71116. CFL: 8.35917.
MG level: 2 -> Min. DT: 0.00155937. Max. DT: 8.31074. CFL: 7.39444.
-------------------------------------------------------------------------

----------------------- Residual Evolution Summary ----------------------
log10[Maximum residual]: -8.5246.
Maximum residual point 261, located at (0.583331, 0.0575341).
-------------------------------------------------------------------------

 Iter    Time(s)     Res[Rho]     Res[RhoE]      CL(Total)      CD(Total)
 5969   0.015502    -9.722968     -9.212480       0.066890       0.000452
 5970   0.015495    -9.741984     -9.232200       0.066890       0.000452
 5971   0.015486    -9.763570     -9.255388       0.066890       0.000452
 5972   0.015475    -9.785541     -9.278284       0.066890       0.000452
 5973   0.015464    -9.808042     -9.301367       0.066890       0.000452
 5974   0.015455    -9.830411     -9.324002       0.066890       0.000452
 5975   0.015447    -9.852289     -9.345799       0.066890       0.000452
 5976   0.015445    -9.874014     -9.367419       0.066890       0.000452
 5977   0.015436    -9.895939     -9.389421       0.066890       0.000452
 5978   0.015428    -9.918015     -9.411678       0.066890       0.000452
 5979   0.015426    -9.940217     -9.434140       0.066890       0.000452
 5980   0.015422    -9.963225     -9.457777       0.066890       0.000452
 5981   0.015413    -9.983721     -9.477320       0.066890       0.000452
 5982   0.015409   -10.005163     -9.498772       0.066890       0.000452
 5983   0.015438   -10.028182     -9.523181       0.066890       0.000452
 5984   0.015434   -10.050414     -9.545296       0.066890       0.000452
 5985   0.015425   -10.075311     -9.571315       0.066890       0.000452
 5986   0.015438   -10.093810     -9.587756       0.066890       0.000452
 5987   0.015442   -10.115255     -9.609059       0.066890       0.000452
 5988   0.015436   -10.138362     -9.632959       0.066890       0.000452
 5989   0.015431   -10.156506     -9.649619       0.066890       0.000452
 5990   0.015424   -10.176784     -9.669241       0.066890       0.000452
 5991   0.015414   -10.197424     -9.690061       0.066890       0.000452
 5992   0.015407   -10.218650     -9.711274       0.066890       0.000452
 5993   0.015402   -10.238702     -9.730678       0.066890       0.000452
 5994   0.015395   -10.259167     -9.750612       0.066890       0.000452
 5995   0.015393   -10.281035     -9.772718       0.066890       0.000452
 5996   0.015383   -10.304452     -9.796918       0.066890       0.000452
 5997   0.015387   -10.328917     -9.822198       0.066890       0.000452
 5998   0.015405   -10.354103     -9.848087       0.066890       0.000452
 5999   0.015431   -10.380323     -9.875147       0.066890       0.000452
 6000   0.015453   -10.407785     -9.903717       0.066890       0.000452
 6001   0.015449   -10.435744     -9.932660       0.066890       0.000452
 6002   0.015441   -10.463965     -9.961674       0.066890       0.000452
 6003   0.015444   -10.493204     -9.991966       0.066890       0.000452
 6004   0.015440   -10.523590    -10.023661       0.066890       0.000452
 6005   0.015434   -10.555063    -10.056521       0.066890       0.000452
 6006   0.015431   -10.587495    -10.090303       0.066890       0.000452
 6007   0.015425   -10.621128    -10.125355       0.066890       0.000452
 6008   0.015421   -10.654959    -10.160149       0.066890       0.000452

---------------------- Local Time Stepping Summary ----------------------
MG level: 0 -> Min. DT: 0.000497809. Max. DT: 3.6287. CFL: 10.
MG level: 1 -> Min. DT: 0.000799997. Max. DT: 5.71116. CFL: 8.35917.
MG level: 2 -> Min. DT: 0.00155937. Max. DT: 8.31074. CFL: 7.39444.
-------------------------------------------------------------------------

----------------------- Residual Evolution Summary ----------------------
log10[Maximum residual]: -9.41637.
Maximum residual point 261, located at (0.583331, 0.0575341).
-------------------------------------------------------------------------

 Iter    Time(s)     Res[Rho]     Res[RhoE]      CL(Total)      CD(Total)
 6009   0.015414   -10.687335    -10.192296       0.066890       0.000452
 6010   0.015412   -10.716304    -10.219414       0.066890       0.000452
 6011   0.015406   -10.740566    -10.240434       0.066890       0.000452
 6012   0.015398   -10.762968    -10.259976       0.066890       0.000452
 6013   0.015389   -10.788343    -10.284639       0.066890       0.000452
 6014   0.015387   -10.816117    -10.312920       0.066890       0.000452
 6015   0.015383   -10.824770    -10.314185       0.066890       0.000452
 6016   0.015374   -10.848298    -10.337645       0.066890       0.000452
 6017   0.015369   -10.888007    -10.389060       0.066890       0.000452
 6018   0.015361   -10.924895    -10.427944       0.066890       0.000452
 6019   0.015354   -10.959983    -10.463222       0.066890       0.000452
 6020   0.015353   -10.994692    -10.497556       0.066890       0.000452
 6021   0.015352   -11.023524    -10.523969       0.066890       0.000452
 6022   0.015348   -11.056545    -10.557151       0.066890       0.000452
 6023   0.015346   -11.083602    -10.582087       0.066890       0.000452
 6024   0.015342   -11.111732    -10.609510       0.066890       0.000452
 6025   0.015337   -11.136316    -10.631854       0.066890       0.000452
 6026   0.015333   -11.154365    -10.645482       0.066890       0.000452
 6027   0.015326   -11.168224    -10.654713       0.066890       0.000452
 6028   0.015320   -11.195238    -10.684256       0.066890       0.000452
 6029   0.015316   -11.222056    -10.713162       0.066890       0.000452
 6030   0.015308   -11.248109    -10.739963       0.066890       0.000452
 6031   0.015311   -11.277356    -10.770777       0.066890       0.000452
 6032   0.015308   -11.312023    -10.809087       0.066890       0.000452
 6033   0.015304   -11.340224    -10.836667       0.066890       0.000452
 6034   0.015303   -11.366275    -10.861629       0.066890       0.000452
 6035   0.015297   -11.396162    -10.893057       0.066890       0.000452
 6036   0.015292   -11.409209    -10.900207       0.066890       0.000452
 6037   0.015289   -11.426630    -10.915823       0.066890       0.000452
 6038   0.015283   -11.450483    -10.941698       0.066890       0.000452
 6039   0.015279   -11.457740    -10.943330       0.066890       0.000452
 6040   0.015275   -11.475098    -10.960546       0.066890       0.000452
 6041   0.015272   -11.502042    -10.991614       0.066890       0.000452
 6042   0.015269   -11.511541    -10.996326       0.066890       0.000452
 6043   0.015265   -11.524316    -11.006962       0.066890       0.000452
 6044   0.015260   -11.556890    -11.046503       0.066890       0.000452
 6045   0.015259   -11.573969    -11.061204       0.066890       0.000452
 6046   0.015256   -11.573287    -11.052352       0.066890       0.000452
 6047   0.015253   -11.595292    -11.077801       0.066890       0.000452
 6048   0.015250   -11.626001    -11.114188       0.066890       0.000452

---------------------- Local Time Stepping Summary ----------------------
MG level: 0 -> Min. DT: 0.000497809. Max. DT: 3.6287. CFL: 10.
MG level: 1 -> Min. DT: 0.000799997. Max. DT: 5.71116. CFL: 8.35917.
MG level: 2 -> Min. DT: 0.00155937. Max. DT: 8.31074. CFL: 7.39444.
-------------------------------------------------------------------------

----------------------- Residual Evolution Summary ----------------------
log10[Maximum residual]: -10.414.
Maximum residual point 436, located at (0.36366, 0.0609836).
-------------------------------------------------------------------------

 Iter    Time(s)     Res[Rho]     Res[RhoE]      CL(Total)      CD(Total)
 6049   0.015249   -11.618801    -11.096028       0.066890       0.000452
 6050   0.015276   -11.612363    -11.082675       0.066890       0.000452
 6051   0.015277   -11.634248    -11.110021       0.066890       0.000452
 6052   0.015274   -11.657284    -11.136636       0.066890       0.000452
 6053   0.015288   -11.645932    -11.115724       0.066890       0.000452
 6054   0.015288   -11.643615    -11.109063       0.066890       0.000452
 6055   0.015285   -11.663600    -11.133628       0.066890       0.000452
 6056   0.015284   -11.686523    -11.160343       0.066890       0.000452
 6057   0.015278   -11.681894    -11.149093       0.066890       0.000452
 6058   0.015275   -11.681282    -11.144680       0.066890       0.000452
 6059   0.015270   -11.699361    -11.166094       0.066890       0.000452
 6060   0.015266   -11.725406    -11.197045       0.066890       0.000452
 6061   0.015263   -11.728284    -11.195606       0.066890       0.000452
 6062   0.015258   -11.727739    -11.190862       0.066890       0.000452
 6063   0.015254   -11.745449    -11.211357       0.066890       0.000452
 6064   0.015253   -11.773530    -11.245132       0.066890       0.000452
 6065   0.015266   -11.777622    -11.245275       0.066890       0.000452
 6066   0.015298   -11.778731    -11.242485       0.066890       0.000452
 6067   0.015302   -11.801524    -11.269695       0.066890       0.000452
 6068   0.015297   -11.827822    -11.300788       0.066890       0.000452
 6069   0.015296   -11.824755    -11.291577       0.066890       0.000452
 6070   0.015291   -11.834097    -11.299896       0.066890       0.000452
 6071   0.015287   -11.863889    -11.336621       0.066890       0.000452
 6072   0.015281   -11.879555    -11.352351       0.066890       0.000452
 6073   0.015278   -11.873339    -11.339311       0.066890       0.000452
 6074   0.015275   -11.889892    -11.357910       0.066890       0.000452
 6075   0.015270   -11.923029    -11.399352       0.066890       0.000452
 6076   0.015267   -11.922070    -11.392685       0.066890       0.000452
 6077   0.015266   -11.923484    -11.390097       0.066890       0.000452
 6078   0.015265   -11.958563    -11.434480       0.066890       0.000452
 6079   0.015259   -11.973892    -11.449927       0.066890       0.000452
 6080   0.015255   -11.964824    -11.432885       0.066890       0.000452
 6081   0.015252   -11.988639    -11.461097       0.066890       0.000452
 6082   0.015249   -12.025766    -11.507676       0.066890       0.000452
 6083   0.015246   -12.014962    -11.487207       0.066890       0.000452
 6084   0.015241   -12.016142    -11.484279       0.066890       0.000452
 6085   0.015237   -12.055219    -11.534751       0.066890       0.000452
 6086   0.015233   -12.068762    -11.547331       0.066890       0.000452
 6087   0.015229   -12.056294    -11.525616       0.066890       0.000452
 6088   0.015227   -12.082511    -11.557087       0.066890       0.000452

---------------------- Local Time Stepping Summary ----------------------
MG level: 0 -> Min. DT: 0.000497809. Max. DT: 3.6287. CFL: 10.
MG level: 1 -> Min. DT: 0.000799997. Max. DT: 5.71116. CFL: 8.35917.
MG level: 2 -> Min. DT: 0.00155937. Max. DT: 8.31074. CFL: 7.39444.
-------------------------------------------------------------------------

----------------------- Residual Evolution Summary ----------------------
log10[Maximum residual]: -11.0213.
Maximum residual point 435, located at (0.33346, 0.0601547).
-------------------------------------------------------------------------

 Iter    Time(s)     Res[Rho]     Res[RhoE]      CL(Total)      CD(Total)
 6089   0.015223   -12.122551    -11.607808       0.066890       0.000452
 6090   0.015219   -12.103785    -11.576951       0.066890       0.000452
 6091   0.015216   -12.111237    -11.582141       0.066890       0.000452
 6092   0.015213   -12.153836    -11.637545       0.066890       0.000452
 6093   0.015210   -12.164947    -11.645802       0.066890       0.000452
 6094   0.015206   -12.143262    -11.612421       0.066890       0.000452
 6095   0.015203   -12.164287    -11.637364       0.066890       0.000452
 6096   0.015198   -12.204776    -11.689872       0.066890       0.000452
 6097   0.015202   -12.197674    -11.674230       0.066890       0.000452
 6098   0.015204   -12.185933    -11.654365       0.066890       0.000452
 6099   0.015203   -12.208310    -11.681792       0.066890       0.000452

-------------------------- File Output Summary --------------------------
Writing comma-separated values (CSV) surface files.
Merging coordinates in the Master node.
Merging solution in the Master node.
Writing SU2 native restart file.
Writing the forces breakdown file.
-------------------------------------------------------------------------

 6100   0.015384   -12.227361    -11.704624       0.066890       0.000452
 6101   0.015380   -12.224968    -11.697008       0.066890       0.000452
 6102   0.015376   -12.219632    -11.686760       0.066890       0.000452
 6103   0.015371   -12.228773    -11.696720       0.066890       0.000452
 6104   0.015366   -12.245780    -11.717127       0.066890       0.000452
 6105   0.015369   -12.258409    -11.730367       0.066890       0.000452
 6106   0.015365   -12.255155    -11.722660       0.066890       0.000452
 6107   0.015363   -12.268337    -11.737092       0.066890       0.000452
 6108   0.015359   -12.286980    -11.758824       0.066890       0.000452
 6109   0.015357   -12.299075    -11.770807       0.066890       0.000452
 6110   0.015352   -12.305462    -11.775217       0.066890       0.000452
 6111   0.015347   -12.334837    -11.810866       0.066890       0.000452
 6112   0.015345   -12.347197    -11.822065       0.066890       0.000452
 6113   0.015346   -12.346359    -11.816684       0.066890       0.000452
 6114   0.015356   -12.351233    -11.819794       0.066890       0.000452
 6115   0.015352   -12.398506    -11.882714       0.066890       0.000452
 6116   0.015350   -12.394712    -11.871827       0.066890       0.000452
 6117   0.015351   -12.421837    -11.901685       0.066890       0.000452
 6118   0.015356   -12.440069    -11.922247       0.066890       0.000452
 6119   0.015352   -12.420334    -11.892764       0.066890       0.000452
 6120   0.015347   -12.476266    -11.965210       0.066890       0.000452
 6121   0.015343   -12.501067    -11.992159       0.066890       0.000452
 6122   0.015341   -12.474291    -11.950805       0.066890       0.000452
 6123   0.015341   -12.519214    -12.007594       0.066890       0.000452
 6124   0.015337   -12.530617    -12.017469       0.066890       0.000452
 6125   0.015333   -12.511685    -11.987249       0.066890       0.000452
 6126   0.015330   -12.560429    -12.049566       0.066890       0.000452
 6127   0.015326   -12.569874    -12.055182       0.066890       0.000452
 6128   0.015322   -12.593497    -12.079169       0.066890       0.000452

---------------------- Local Time Stepping Summary ----------------------
MG level: 0 -> Min. DT: 0.000497809. Max. DT: 3.6287. CFL: 10.
MG level: 1 -> Min. DT: 0.000799997. Max. DT: 5.71116. CFL: 8.35917.
MG level: 2 -> Min. DT: 0.00155937. Max. DT: 8.31074. CFL: 7.39444.
-------------------------------------------------------------------------

----------------------- Residual Evolution Summary ----------------------
log10[Maximum residual]: -11.4851.
Maximum residual point 436, located at (0.36366, 0.0609836).
-------------------------------------------------------------------------

 Iter    Time(s)     Res[Rho]     Res[RhoE]      CL(Total)      CD(Total)
 6129   0.015331   -12.612740    -12.098318       0.066890       0.000452
 6130   0.015330   -12.615068    -12.094585       0.066890       0.000452
 6131   0.015358   -12.628525    -12.108367       0.066890       0.000452
 6132   0.015357   -12.644421    -12.125195       0.066890       0.000452
 6133   0.015353   -12.658071    -12.137694       0.066890       0.000452
 6134   0.015350   -12.657840    -12.133067       0.066890       0.000452
 6135   0.015346   -12.693134    -12.177247       0.066890       0.000452
 6136   0.015345   -12.708211    -12.192896       0.066890       0.000452
 6137   0.015341   -12.717626    -12.198450       0.066890       0.000452
 6138   0.015339   -12.728381    -12.209988       0.066890       0.000452
 6139   0.015336   -12.749066    -12.232347       0.066890       0.000452
 6140   0.015338   -12.765740    -12.249707       0.066890       0.000452
 6141   0.015334   -12.733593    -12.203145       0.066890       0.000452
 6142   0.015332   -12.759327    -12.236676       0.066890       0.000452
 6143   0.015329   -12.784246    -12.267318       0.066890       0.000452
 6144   0.015329   -12.768410    -12.241571       0.066890       0.000452
 6145   0.015326   -12.799785    -12.280248       0.066890       0.000452
 6146   0.015324   -12.823205    -12.306931       0.066890       0.000452
 6147   0.015321   -12.822216    -12.299352       0.066890       0.000452
 6148   0.015317   -12.847569    -12.328737       0.066890       0.000452
 6149   0.015313   -12.831661    -12.304260       0.066890       0.000452
 6150   0.015309   -12.818932    -12.287050       0.066890       0.000452
 6151   0.015308   -12.831210    -12.303524       0.066890       0.000452
 6152   0.015307   -12.885806    -12.375330       0.066890       0.000452
 6153   0.015304   -12.892746    -12.375227       0.066890       0.000452
 6154   0.015300   -12.871663    -12.341732       0.066890       0.000452
 6155   0.015298   -12.895730    -12.372727       0.066890       0.000452
 6156   0.015294   -12.945156    -12.435426       0.066890       0.000452
 6157   0.015295   -12.937264    -12.416562       0.066890       0.000452
 6158   0.015291   -12.975127    -12.462086       0.066890       0.000452
 6159   0.015289   -12.947231    -12.420588       0.066890       0.000452
 6160   0.015285   -12.953477    -12.428315       0.066890       0.000452
 6161   0.015282   -12.975197    -12.455623       0.066890       0.000452
 6162   0.015283   -13.019155    -12.509480       0.066890       0.000452

-------------------------- File Output Summary --------------------------
Writing comma-separated values (CSV) surface files.
Merging coordinates in the Master node.
Merging solution in the Master node.
Writing SU2 native restart file.
Writing the forces breakdown file.
-------------------------------------------------------------------------

History file, closed.

------------------------- Solver Postprocessing -------------------------
Deleted CNumerics container.
Deleted CIntegration container.
Deleted CSolver container.
Deleted CIteration container.
Deleted CInterpolator container.
Deleted CTransfer container.
Deleted CGeometry container.
Deleted CFreeFormDefBox class.
Deleted CSurfaceMovement class.
Deleted CVolumetricMovement class.
Deleted CConfig container.
Deleted COutput class.
-------------------------------------------------------------------------

Completed in 4.851169 seconds on 8 cores.

------------------------- Exit Success (SU2_CFD) ------------------------


-------------------------------------------------------------------------
|    ___ _   _ ___                                                      |
|   / __| | | |_  )   Release 5.0.0  "Raven"                            |
|   \__ \ |_| |/ /                                                      |
|   |___/\___//___|   Suite (Solution Exporting Code)                   |
|                                                                       |
-------------------------------------------------------------------------
| SU2 Original Developers: Dr. Francisco D. Palacios.                   |
|                          Dr. Thomas D. Economon.                      |
-------------------------------------------------------------------------
| SU2 Developers:                                                       |
| - Prof. Juan J. Alonso's group at Stanford University.                |
| - Prof. Piero Colonna's group at Delft University of Technology.      |
| - Prof. Nicolas R. Gauger's group at Kaiserslautern U. of Technology. |
| - Prof. Alberto Guardone's group at Polytechnic University of Milan.  |
| - Prof. Rafael Palacios' group at Imperial College London.            |
| - Prof. Edwin van der Weide's group at the University of Twente.      |
| - Prof. Vincent Terrapon's group at the University of Liege.          |
-------------------------------------------------------------------------
| Copyright (C) 2012-2017 SU2, the open-source CFD code.                |
|                                                                       |
| SU2 is free software; you can redistribute it and/or                  |
| modify it under the terms of the GNU Lesser General Public            |
| License as published by the Free Software Foundation; either          |
| version 2.1 of the License, or (at your option) any later version.    |
|                                                                       |
| SU2 is distributed in the hope that it will be useful,                |
| but WITHOUT ANY WARRANTY; without even the implied warranty of        |
| MERCHANTABILITY or FITNESS FOR A PARTICULAR PURPOSE. See the GNU      |
| Lesser General Public License for more details.                       |
|                                                                       |
| You should have received a copy of the GNU Lesser General Public      |
| License along with SU2. If not, see <http://www.gnu.org/licenses/>.   |
-------------------------------------------------------------------------

------------------------ Physical Case Definition -----------------------
Input mesh file name: mesh_NACA0012_inv_deform.su2

-------------------------- Output Information ---------------------------
The output file format is Tecplot ASCII (.dat).
Flow variables file name: flow.

------------------- Config File Boundary Information --------------------
Euler wall boundary marker(s): airfoil.
Far-field boundary marker(s): farfield.

---------------------- Read Grid File Information -----------------------
Two dimensional problem.
5233 points before parallel partitioning.
Performing linear partitioning of the grid nodes.
10216 interior elements before parallel partitioning.
Calling the partitioning functions.
Building the graph adjacency structure.
Distributing elements across all ranks.
2 surface markers.
200 boundary elements in index 0 (Marker = airfoil).
50 boundary elements in index 1 (Marker = farfield).
Calling ParMETIS...
Finished partitioning using ParMETIS (547 edge cuts).
Communicating partition data and creating halo layers.
10763 interior elements including halo cells. 
10763 triangles.
5796 vertices including ghost points. 
Establishing MPI communication patterns.
Identify vertices.

------------------------- Solution Postprocessing -----------------------
Reading and storing the solution from restart_flow.dat.
Merging connectivities in the Master node.
Merging solution in the Master node.
Writing Tecplot ASCII file (volume grid).
Writing Tecplot ASCII file (surface grid).

Completed in 0.105369 seconds on 8 cores.

------------------------- Exit Success (SU2_SOL) ------------------------

