
-------------------------------------------------------------------------
|    ___ _   _ ___                                                      |
|   / __| | | |_  )   Release 5.0.0  "Raven"                            |
|   \__ \ |_| |/ /                                                      |
|   |___/\___//___|   Suite (Computational Fluid Dynamics Code)         |
|                                                                       |
-------------------------------------------------------------------------
| SU2 Original Developers: Dr. Francisco D. Palacios.                   |
|                          Dr. Thomas D. Economon.                      |
-------------------------------------------------------------------------
| SU2 Developers:                                                       |
| - Prof. Juan J. Alonso's group at Stanford University.                |
| - Prof. Piero Colonna's group at Delft University of Technology.      |
| - Prof. Nicolas R. Gauger's group at Kaiserslautern U. of Technology. |
| - Prof. Alberto Guardone's group at Polytechnic University of Milan.  |
| - Prof. Rafael Palacios' group at Imperial College London.            |
| - Prof. Edwin van der Weide's group at the University of Twente.      |
| - Prof. Vincent Terrapon's group at the University of Liege.          |
-------------------------------------------------------------------------
| Copyright (C) 2012-2017 SU2, the open-source CFD code.                |
|                                                                       |
| SU2 is free software; you can redistribute it and/or                  |
| modify it under the terms of the GNU Lesser General Public            |
| License as published by the Free Software Foundation; either          |
| version 2.1 of the License, or (at your option) any later version.    |
|                                                                       |
| SU2 is distributed in the hope that it will be useful,                |
| but WITHOUT ANY WARRANTY; without even the implied warranty of        |
| MERCHANTABILITY or FITNESS FOR A PARTICULAR PURPOSE. See the GNU      |
| Lesser General Public License for more details.                       |
|                                                                       |
| You should have received a copy of the GNU Lesser General Public      |
| License along with SU2. If not, see <http://www.gnu.org/licenses/>.   |
-------------------------------------------------------------------------

------------------------ Physical Case Definition -----------------------
Compressible Euler equations.
Mach number: 0.8.
Angle of attack (AoA): 1.25 deg, and angle of sideslip (AoS): 0 deg.
Read flow solution from: solution_flow.dat.
Non-Dimensional simulation (P=1.0, Rho=1.0, T=1.0 at the farfield).
The reference length/area (force coefficient) is 1.
The reference length (moment computation) is 1.
Reference origin (moment computation) is (0.25, 0, 0).
Surface(s) where the force coefficients are evaluated: airfoil.
Surface(s) plotted in the output file: airfoil.
Surface(s) affected by the design variables: airfoil.
Input mesh file name: mesh_deform.su2

---------------------- Space Numerical Integration ----------------------
Jameson-Schmidt-Turkel scheme for the flow inviscid terms.
JST viscous coefficients (1st, 2nd & 4th): 0.15, 0.5, 0.02.
The method includes a grid stretching correction (p = 0.3).
Second order integration.
Gradient computation using Green-Gauss theorem.

---------------------- Time Numerical Integration -----------------------
Local time stepping (steady state simulation).
Euler implicit method for the flow equations.
V Multigrid Cycle, with 2 multigrid levels.
Damping factor for the residual restriction: 1.
Damping factor for the correction prolongation: 1.
No CFL adaptation.
Multigrid Level:                       0     1     2
Courant-Friedrichs-Lewy number:       10
MG PreSmooth coefficients:             1     2     3
MG PostSmooth coefficients:            0     0     0
MG CorrecSmooth coefficients:          0     0     0

------------------------- Convergence Criteria --------------------------
Maximum number of iterations: 1000.
Reduce the density residual 6 orders of magnitude.
The minimum bound for the density residual is 10^(-10).
Start convergence criteria at iteration 10.

-------------------------- Output Information ---------------------------
Writing a flow solution every 250 iterations.
Writing the convergence history every 1 iterations.
The output file format is Paraview ASCII (.vtk).
Convergence history file name: history_direct.
Forces breakdown file name: forces_breakdown.dat.
Surface flow coefficients file name: surface_flow.
Flow variables file name: flow.
Restart flow file name: restart_flow.dat.

------------------- Config File Boundary Information --------------------
Euler wall boundary marker(s): airfoil.
Far-field boundary marker(s): farfield.

---------------------- Read Grid File Information -----------------------
Two dimensional problem.
5233 points before parallel partitioning.
Performing linear partitioning of the grid nodes.
10216 interior elements before parallel partitioning.
Calling the partitioning functions.
Building the graph adjacency structure.
Distributing elements across all ranks.
2 surface markers.
200 boundary elements in index 0 (Marker = airfoil).
50 boundary elements in index 1 (Marker = farfield).
Calling ParMETIS...
Finished partitioning using ParMETIS (547 edge cuts).
Communicating partition data and creating halo layers.
10763 interior elements including halo cells. 
10763 triangles.
5796 vertices including ghost points. 
Establishing MPI communication patterns.

------------------------- Geometry Preprocessing ------------------------
Setting point connectivity.
Renumbering points (Reverse Cuthill McKee Ordering).
Recomputing point connectivity.
Setting element connectivity.
Checking the numerical grid orientation.
Identifying edges and vertices.
Computing centers of gravity.
Setting the control volume structure.
Area of the computational grid: 1.3e+03.
Searching for the closest normal neighbors to the surfaces.
Compute the surface curvature.
Max K: 7.84e+03. Mean K: 35.6. Standard deviation K: 494.
Checking for periodicity.
Setting the multigrid structure.
MG level: 0 -> CVs: 5796. Agglomeration rate 1/1.00. CFL 10.
MG level: 1 -> CVs: 1800. Agglomeration rate 1/3.22. CFL 8.36.
MG level: 2 -> CVs: 626. Agglomeration rate 1/2.88. CFL 7.39.
Computing wall distances.
Wetted area = 2.03 m.
Area projection in the x-plane = 0.107 m, y-plane = 1 m.

------------------------- Driver information --------------------------
A Fluid driver has been instantiated.

------------------------ Iteration Preprocessing ------------------------
Zone 1: Euler/Navier-Stokes/RANS flow iteration.

------------------------- Solver Preprocessing --------------------------
Inviscid flow: Computing density based on free-stream
temperature and pressure using the ideal gas law.
Force coefficients computed using free-stream values.
-- Input conditions:
Fluid Model: STANDARD_AIR 
Specific gas constant: 287.058 N.m/kg.K.
Specific gas constant (non-dim): 1
Specific Heat Ratio: 1.4
Free-stream static pressure: 101325 Pa.
Free-stream total pressure: 154454 Pa.
Free-stream temperature: 288.15 K.
Free-stream density: 1.22498 kg/m^3.
Free-stream velocity: (272.173, 5.93883) m/s. Magnitude: 272.238 m/s (529.186 KTS).
Free-stream total energy per unit mass: 243846 m^2/s^2.
-- Reference values:
Reference specific gas constant: 287.058 N.m/kg.K.
Reference pressure: 101325 Pa.
Reference temperature: 288.15 K.
Reference density: 1.22498 kg/m^3.
Reference velocity: 287.603 m/s.
Reference energy per unit mass: 82715.8 m^2/s^2.
-- Resulting non-dimensional state:
Mach number (non-dim): 0.8
Specific gas constant (non-dim): 1
Free-stream temperature (non-dim): 1
Free-stream pressure (non-dim): 1
Free-stream density (non-dim): 1
Free-stream velocity (non-dim): (0.946348, 0.0206494). Magnitude: 0.946573
Free-stream total energy per unit mass (non-dim): 2.948

Initialize Jacobian structure (Euler). MG level: 0.
Initialize Jacobian structure (Euler). MG level: 1.
Initialize Jacobian structure (Euler). MG level: 2.

----------------- Integration and Numerics Preprocessing ----------------
Integration Preprocessing.
Numerics Preprocessing.

------------------------------ Begin Solver -----------------------------

---------------------- Local Time Stepping Summary ----------------------
MG level: 0 -> Min. DT: 0.000497791. Max. DT: 3.62837. CFL: 10.
MG level: 1 -> Min. DT: 0.000799983. Max. DT: 5.71081. CFL: 8.35917.
MG level: 2 -> Min. DT: 0.00155927. Max. DT: 8.3101. CFL: 7.39444.
-------------------------------------------------------------------------

----------------------- Residual Evolution Summary ----------------------
log10[Maximum residual]: -4.57716.
Maximum residual point 105, located at (0.00752, 0.0117774).
-------------------------------------------------------------------------

 Iter    Time(s)     Res[Rho]     Res[RhoE]      CL(Total)      CD(Total)
  592   0.020323    -5.740715     -5.144336       0.065076       0.001387
  593   0.020923    -5.780757     -5.178093       0.064849       0.001079
  594   0.022012    -5.771083     -5.172086       0.064667       0.000954
  595   0.022850    -5.744364     -5.142017       0.064454       0.000849
  596   0.022949    -5.713090     -5.108672       0.064211       0.000769
  597   0.022823    -5.681761     -5.078348       0.063942       0.000716
  598   0.022056    -5.650860     -5.047917       0.063669       0.000672
  599   0.021456    -5.624568     -5.020941       0.063412       0.000636
  600   0.021106    -5.606545     -5.002279       0.063180       0.000607
  601   0.020794    -5.595628     -4.990862       0.062974       0.000585
  602   0.020479    -5.590471     -4.985272       0.062792       0.000568
  603   0.020262    -5.589507     -4.983915       0.062629       0.000555
  604   0.020055    -5.591075     -4.985161       0.062480       0.000547
  605   0.020227    -5.593905     -4.987787       0.062345       0.000541
  606   0.020260    -5.597214     -4.990999       0.062221       0.000538
  607   0.020182    -5.600395     -4.994073       0.062109       0.000535
  608   0.020139    -5.602831     -4.996192       0.062008       0.000534
  609   0.020146    -5.603961     -4.996590       0.061916       0.000534
  610   0.020183    -5.603436     -4.994808       0.061833       0.000534
  611   0.020145    -5.601261     -4.990884       0.061758       0.000534
  612   0.020103    -5.597755     -4.985279       0.061690       0.000535
  613   0.020078    -5.593391     -4.978634       0.061629       0.000535
  614   0.020033    -5.588660     -4.971571       0.061573       0.000536
  615   0.019993    -5.584010     -4.964620       0.061522       0.000536
  616   0.019973    -5.579843     -4.958223       0.061476       0.000535
  617   0.019936    -5.576556     -4.952802       0.061434       0.000534
  618   0.019949    -5.574625     -4.948862       0.061395       0.000532
  619   0.019940    -5.574670     -4.947063       0.061359       0.000528
  620   0.019939    -5.577542     -4.948309       0.061325       0.000524
  621   0.019889    -5.584404     -4.953835       0.061294       0.000518
  622   0.019843    -5.596913     -4.965395       0.061265       0.000511
  623   0.019845    -5.617505     -4.985570       0.061236       0.000502
  624   0.019825    -5.649943     -5.018356       0.061207       0.000493
  625   0.019780    -5.700191     -5.070157       0.061178       0.000482
  626   0.019733    -5.776161     -5.149676       0.061149       0.000472
  627   0.019720    -5.865008     -5.243850       0.061113       0.000463
  628   0.019811    -5.912779     -5.294742       0.061055       0.000456
  629   0.019849    -5.939418     -5.323881       0.060988       0.000449
  630   0.019835    -5.970193     -5.359273       0.060915       0.000443
  631   0.019831    -6.002134     -5.396948       0.060839       0.000440

---------------------- Local Time Stepping Summary ----------------------
MG level: 0 -> Min. DT: 0.000497877. Max. DT: 3.62837. CFL: 10.
MG level: 1 -> Min. DT: 0.000800019. Max. DT: 5.71085. CFL: 8.35917.
MG level: 2 -> Min. DT: 0.00155961. Max. DT: 8.31014. CFL: 7.39444.
-------------------------------------------------------------------------

----------------------- Residual Evolution Summary ----------------------
log10[Maximum residual]: -4.93328.
Maximum residual point 1976, located at (0.35598, 0.3218).
-------------------------------------------------------------------------

 Iter    Time(s)     Res[Rho]     Res[RhoE]      CL(Total)      CD(Total)
  632   0.019827    -6.020054     -5.418791       0.060761       0.000437
  633   0.019821    -6.026967     -5.428157       0.060684       0.000434
  634   0.019799    -6.034429     -5.438445       0.060610       0.000431
  635   0.019767    -6.044834     -5.452334       0.060540       0.000429
  636   0.019790    -6.052549     -5.463237       0.060473       0.000428
  637   0.019804    -6.055507     -5.468774       0.060410       0.000427
  638   0.019743    -6.057053     -5.472684       0.060353       0.000427
  639   0.019815    -6.058938     -5.476771       0.060301       0.000427
  640   0.019812    -6.060051     -5.479630       0.060254       0.000428
  641   0.019762    -6.060439     -5.481318       0.060211       0.000429
  642   0.019710    -6.061715     -5.483715       0.060174       0.000430
  643   0.019667    -6.064525     -5.487575       0.060140       0.000432
  644   0.019619    -6.068712     -5.492743       0.060109       0.000433
  645   0.019571    -6.074793     -5.499858       0.060082       0.000435
  646   0.019525    -6.083555     -5.509882       0.060056       0.000436
  647   0.019474    -6.095234     -5.523149       0.060033       0.000437
  648   0.019455    -6.110042     -5.539981       0.060012       0.000439
  649   0.019420    -6.128682     -5.561290       0.059992       0.000440
  650   0.019383    -6.151784     -5.587932       0.059973       0.000441
  651   0.019356    -6.179573     -5.620298       0.059955       0.000442
  652   0.019329    -6.212379     -5.658902       0.059938       0.000443
  653   0.019282    -6.250486     -5.704189       0.059923       0.000444
  654   0.019246    -6.292490     -5.754326       0.059909       0.000445
  655   0.019211    -6.332213     -5.800957       0.059897       0.000446
  656   0.019171    -6.353624     -5.823166       0.059889       0.000448
  657   0.019153    -6.354528     -5.820071       0.059883       0.000450
  658   0.019123    -6.345141     -5.804484       0.059879       0.000451
  659   0.019116    -6.337010     -5.791471       0.059876       0.000453
  660   0.019093    -6.329755     -5.780513       0.059875       0.000454
  661   0.019063    -6.326627     -5.775601       0.059875       0.000456
  662   0.019048    -6.329106     -5.778207       0.059875       0.000457
  663   0.019017    -6.333174     -5.782897       0.059875       0.000459
  664   0.018984    -6.335921     -5.785839       0.059876       0.000460
  665   0.018969    -6.336664     -5.786255       0.059878       0.000461
  666   0.018949    -6.336525     -5.785651       0.059880       0.000462
  667   0.018936    -6.336851     -5.785717       0.059882       0.000463
  668   0.018915    -6.338126     -5.786968       0.059885       0.000464
  669   0.018895    -6.340159     -5.789085       0.059887       0.000464
  670   0.018879    -6.342741     -5.791798       0.059889       0.000464
  671   0.018868    -6.345894     -5.795163       0.059891       0.000465

---------------------- Local Time Stepping Summary ----------------------
MG level: 0 -> Min. DT: 0.00049777. Max. DT: 3.62837. CFL: 10.
MG level: 1 -> Min. DT: 0.000799995. Max. DT: 5.71086. CFL: 8.35917.
MG level: 2 -> Min. DT: 0.00155928. Max. DT: 8.31015. CFL: 7.39444.
-------------------------------------------------------------------------

----------------------- Residual Evolution Summary ----------------------
log10[Maximum residual]: -5.27437.
Maximum residual point 1455, located at (0.459939, 0.187679).
-------------------------------------------------------------------------

 Iter    Time(s)     Res[Rho]     Res[RhoE]      CL(Total)      CD(Total)
  672   0.018846    -6.349813     -5.799453       0.059893       0.000465
  673   0.018832    -6.354691     -5.804912       0.059894       0.000465
  674   0.018813    -6.360692     -5.811734       0.059896       0.000465
  675   0.018816    -6.367959     -5.820085       0.059897       0.000465
  676   0.018798    -6.376641     -5.830136       0.059898       0.000464
  677   0.018778    -6.386871     -5.842044       0.059900       0.000464
  678   0.018764    -6.398748     -5.855920       0.059901       0.000464
  679   0.018762    -6.412347     -5.871846       0.059902       0.000464
  680   0.018746    -6.427692     -5.889836       0.059903       0.000464
  681   0.018732    -6.444767     -5.909862       0.059904       0.000464
  682   0.018727    -6.463507     -5.931821       0.059905       0.000464
  683   0.018750    -6.483748     -5.955483       0.059906       0.000464
  684   0.018756    -6.504997     -5.980225       0.059907       0.000464
  685   0.018749    -6.526352     -6.004890       0.059909       0.000465
  686   0.018737    -6.545424     -6.026237       0.059910       0.000465
  687   0.018721    -6.557855     -6.038369       0.059912       0.000465
  688   0.018709    -6.563542     -6.042121       0.059913       0.000465
  689   0.018696    -6.561374     -6.036475       0.059915       0.000465
  690   0.018699    -6.552530     -6.023215       0.059916       0.000465
  691   0.018690    -6.541960     -6.009015       0.059917       0.000465
  692   0.018680    -6.532958     -5.997711       0.059917       0.000465
  693   0.018664    -6.527115     -5.990808       0.059917       0.000465
  694   0.018652    -6.524755     -5.988363       0.059917       0.000465
  695   0.018634    -6.525728     -5.989964       0.059916       0.000465
  696   0.018616    -6.529809     -5.995207       0.059915       0.000466
  697   0.018674    -6.536685     -6.003636       0.059914       0.000466
  698   0.018666    -6.546007     -6.014784       0.059913       0.000466
  699   0.018657    -6.557498     -6.028283       0.059911       0.000466
  700   0.018650    -6.571036     -6.043979       0.059910       0.000465
  701   0.018693    -6.586710     -6.061977       0.059908       0.000465
  702   0.018746    -6.604509     -6.082240       0.059907       0.000465
  703   0.018784    -6.624261     -6.104498       0.059905       0.000465
  704   0.018817    -6.645577     -6.128241       0.059904       0.000465
  705   0.018840    -6.667765     -6.152598       0.059903       0.000465
  706   0.018826    -6.689922     -6.176475       0.059902       0.000465
  707   0.018816    -6.711367     -6.199126       0.059901       0.000465
  708   0.018807    -6.731753     -6.220285       0.059900       0.000465
  709   0.018797    -6.750910     -6.239878       0.059898       0.000465
  710   0.018780    -6.769033     -6.258204       0.059897       0.000465
  711   0.018772    -6.786433     -6.275725       0.059896       0.000465

---------------------- Local Time Stepping Summary ----------------------
MG level: 0 -> Min. DT: 0.000497786. Max. DT: 3.62837. CFL: 10.
MG level: 1 -> Min. DT: 0.000800001. Max. DT: 5.71086. CFL: 8.35917.
MG level: 2 -> Min. DT: 0.00155934. Max. DT: 8.31015. CFL: 7.39444.
-------------------------------------------------------------------------

----------------------- Residual Evolution Summary ----------------------
log10[Maximum residual]: -5.66764.
Maximum residual point 407, located at (0.551939, 0.058932).
-------------------------------------------------------------------------

 Iter    Time(s)     Res[Rho]     Res[RhoE]      CL(Total)      CD(Total)
  712   0.018759    -6.803132     -6.292468       0.059895       0.000465
  713   0.018749    -6.818957     -6.308112       0.059893       0.000465
  714   0.018749    -6.833842     -6.322579       0.059891       0.000465
  715   0.018734    -6.847596     -6.335707       0.059889       0.000465
  716   0.018722    -6.860479     -6.348068       0.059887       0.000465
  717   0.018707    -6.873987     -6.361538       0.059885       0.000465
  718   0.018695    -6.888317     -6.376282       0.059882       0.000465
  719   0.018687    -6.903088     -6.391560       0.059880       0.000465
  720   0.018672    -6.911210     -6.396718       0.059878       0.000465
  721   0.018656    -6.927638     -6.414927       0.059876       0.000465
  722   0.018647    -6.946559     -6.436259       0.059873       0.000465
  723   0.018639    -6.959878     -6.448244       0.059871       0.000465
  724   0.018625    -6.978548     -6.468619       0.059869       0.000465
  725   0.018612    -6.999327     -6.491925       0.059867       0.000465
  726   0.018602    -7.019061     -6.512164       0.059865       0.000465
  727   0.018588    -7.036193     -6.528595       0.059863       0.000465
  728   0.018575    -7.051600     -6.543039       0.059862       0.000465
  729   0.018569    -7.069905     -6.562314       0.059860       0.000464
  730   0.018559    -7.087499     -6.580083       0.059859       0.000464
  731   0.018548    -7.100762     -6.591252       0.059858       0.000464
  732   0.018543    -7.113407     -6.602196       0.059857       0.000465
  733   0.018534    -7.130839     -6.620760       0.059856       0.000465
  734   0.018534    -7.146468     -6.635862       0.059855       0.000465
  735   0.018523    -7.158427     -6.645473       0.059854       0.000465
  736   0.018514    -7.176000     -6.663948       0.059854       0.000465
  737   0.018512    -7.200440     -6.692422       0.059853       0.000465
  738   0.018529    -7.224294     -6.717813       0.059852       0.000465
  739   0.018530    -7.245087     -6.737731       0.059852       0.000465
  740   0.018527    -7.264644     -6.756426       0.059851       0.000465
  741   0.018518    -7.288296     -6.781884       0.059851       0.000465
  742   0.018510    -7.311703     -6.806145       0.059850       0.000465
  743   0.018500    -7.333645     -6.827663       0.059850       0.000465
  744   0.018488    -7.350518     -6.842093       0.059850       0.000465
  745   0.018478    -7.365659     -6.855381       0.059849       0.000465
  746   0.018475    -7.377743     -6.864620       0.059849       0.000465
  747   0.018467    -7.397298     -6.885610       0.059849       0.000465
  748   0.018456    -7.403453     -6.886874       0.059849       0.000465
  749   0.018445    -7.414130     -6.895716       0.059848       0.000465
  750   0.018438    -7.439455     -6.925915       0.059848       0.000465
  751   0.018430    -7.469210     -6.960265       0.059848       0.000465

---------------------- Local Time Stepping Summary ----------------------
MG level: 0 -> Min. DT: 0.000497795. Max. DT: 3.62837. CFL: 10.
MG level: 1 -> Min. DT: 0.000799995. Max. DT: 5.71086. CFL: 8.35917.
MG level: 2 -> Min. DT: 0.00155935. Max. DT: 8.31015. CFL: 7.39444.
-------------------------------------------------------------------------

----------------------- Residual Evolution Summary ----------------------
log10[Maximum residual]: -6.24403.
Maximum residual point 357, located at (0.520332, 0.0601437).
-------------------------------------------------------------------------

 Iter    Time(s)     Res[Rho]     Res[RhoE]      CL(Total)      CD(Total)
  752   0.018422    -7.486536     -6.974223       0.059847       0.000465
  753   0.018426    -7.512569     -7.002472       0.059847       0.000465
  754   0.018461    -7.534511     -7.024278       0.059847       0.000465
  755   0.018454    -7.556917     -7.046747       0.059847       0.000465
  756   0.018446    -7.579703     -7.069660       0.059846       0.000465
  757   0.018471    -7.603911     -7.094776       0.059846       0.000465
  758   0.018467    -7.625098     -7.114996       0.059846       0.000465
  759   0.018464    -7.644451     -7.133330       0.059846       0.000465
  760   0.018465    -7.660324     -7.147104       0.059846       0.000465
  761   0.018465    -7.676785     -7.162635       0.059845       0.000465
  762   0.018455    -7.693037     -7.178227       0.059845       0.000465
  763   0.018450    -7.707635     -7.191353       0.059845       0.000465
  764   0.018446    -7.727981     -7.213172       0.059845       0.000465
  765   0.018442    -7.740877     -7.223542       0.059845       0.000465
  766   0.018434    -7.756891     -7.238987       0.059844       0.000465
  767   0.018431    -7.785076     -7.272901       0.059844       0.000465
  768   0.018426    -7.791968     -7.273651       0.059844       0.000465
  769   0.018423    -7.828112     -7.318257       0.059844       0.000465
  770   0.018422    -7.840885     -7.327403       0.059844       0.000465
  771   0.018423    -7.860612     -7.346497       0.059843       0.000465
  772   0.018420    -7.888457     -7.378297       0.059843       0.000465
  773   0.018415    -7.912236     -7.401826       0.059843       0.000465
  774   0.018408    -7.928536     -7.414778       0.059843       0.000465
  775   0.018400    -7.943027     -7.427440       0.059843       0.000465
  776   0.018400    -7.962333     -7.447771       0.059843       0.000465
  777   0.018396    -7.981116     -7.466473       0.059843       0.000465
  778   0.018389    -7.992710     -7.474797       0.059843       0.000465
  779   0.018384    -8.008201     -7.489972       0.059843       0.000465
  780   0.018377    -8.024859     -7.507118       0.059843       0.000465
  781   0.018372    -8.047232     -7.532142       0.059843       0.000465
  782   0.018365    -8.068405     -7.553803       0.059843       0.000465
  783   0.018363    -8.087714     -7.572673       0.059843       0.000465
  784   0.018356    -8.107900     -7.593207       0.059843       0.000465
  785   0.018348    -8.128175     -7.613926       0.059843       0.000465
  786   0.018341    -8.148535     -7.634506       0.059843       0.000465
  787   0.018334    -8.168637     -7.654822       0.059843       0.000465
  788   0.018327    -8.188010     -7.674210       0.059843       0.000465
  789   0.018320    -8.207493     -7.693843       0.059843       0.000465
  790   0.018311    -8.226155     -7.712374       0.059843       0.000465
  791   0.018311    -8.244576     -7.730700       0.059843       0.000465

---------------------- Local Time Stepping Summary ----------------------
MG level: 0 -> Min. DT: 0.000497795. Max. DT: 3.62837. CFL: 10.
MG level: 1 -> Min. DT: 0.000799995. Max. DT: 5.71086. CFL: 8.35917.
MG level: 2 -> Min. DT: 0.00155935. Max. DT: 8.31015. CFL: 7.39444.
-------------------------------------------------------------------------

----------------------- Residual Evolution Summary ----------------------
log10[Maximum residual]: -7.05754.
Maximum residual point 357, located at (0.520332, 0.0601437).
-------------------------------------------------------------------------

 Iter    Time(s)     Res[Rho]     Res[RhoE]      CL(Total)      CD(Total)
  792   0.018308    -8.263125     -7.749354       0.059843       0.000465
  793   0.018312    -8.282607     -7.769395       0.059843       0.000465
  794   0.018323    -8.302439     -7.789668       0.059843       0.000465
  795   0.018325    -8.322233     -7.809741       0.059843       0.000465
  796   0.018326    -8.341888     -7.829490       0.059843       0.000465
  797   0.018320    -8.360683     -7.848048       0.059843       0.000465
  798   0.018319    -8.379089     -7.866203       0.059843       0.000465
  799   0.018317    -8.397630     -7.884756       0.059843       0.000465
  800   0.018311    -8.416153     -7.903373       0.059843       0.000465
  801   0.018305    -8.435407     -7.922955       0.059843       0.000465
  802   0.018301    -8.454503     -7.942296       0.059843       0.000465
  803   0.018296    -8.474344     -7.962540       0.059843       0.000465
  804   0.018288    -8.493622     -7.981948       0.059843       0.000465
  805   0.018284    -8.513374     -8.001943       0.059844       0.000465
  806   0.018280    -8.532483     -8.021048       0.059844       0.000465
  807   0.018274    -8.551850     -8.040507       0.059844       0.000465
  808   0.018270    -8.570240     -8.058609       0.059844       0.000465
  809   0.018269    -8.588552     -8.076703       0.059844       0.000465
  810   0.018266    -8.605809     -8.093426       0.059844       0.000465
  811   0.018280    -8.623369     -8.110753       0.059844       0.000465
  812   0.018306    -8.640538     -8.127672       0.059844       0.000465
  813   0.018333    -8.658200     -8.145268       0.059844       0.000465
  814   0.018360    -8.675993     -8.163166       0.059844       0.000465
  815   0.018386    -8.694240     -8.181526       0.059844       0.000465
  816   0.018406    -8.712367     -8.199764       0.059844       0.000465
  817   0.018404    -8.731117     -8.218728       0.059844       0.000465
  818   0.018408    -8.749514     -8.237205       0.059844       0.000465
  819   0.018453    -8.768361     -8.256200       0.059844       0.000465
  820   0.018497    -8.786691     -8.274498       0.059845       0.000465
  821   0.018534    -8.804674     -8.292259       0.059845       0.000465
  822   0.018564    -8.821562     -8.308628       0.059845       0.000465
  823   0.018587    -8.838082     -8.324656       0.059845       0.000465
  824   0.018620    -8.853904     -8.339935       0.059845       0.000465
  825   0.018666    -8.869782     -8.355452       0.059845       0.000465
  826   0.018699    -8.885966     -8.371536       0.059845       0.000465
  827   0.018720    -8.902482     -8.388067       0.059845       0.000465
  828   0.018740    -8.919225     -8.404884       0.059845       0.000465
  829   0.018764    -8.936726     -8.422710       0.059845       0.000465
  830   0.018785    -8.954762     -8.441186       0.059845       0.000465
  831   0.018799    -8.973331     -8.460251       0.059845       0.000465

---------------------- Local Time Stepping Summary ----------------------
MG level: 0 -> Min. DT: 0.000497794. Max. DT: 3.62837. CFL: 10.
MG level: 1 -> Min. DT: 0.000799995. Max. DT: 5.71086. CFL: 8.35917.
MG level: 2 -> Min. DT: 0.00155935. Max. DT: 8.31015. CFL: 7.39444.
-------------------------------------------------------------------------

----------------------- Residual Evolution Summary ----------------------
log10[Maximum residual]: -7.79841.
Maximum residual point 582, located at (0.52899, 0.0757979).
-------------------------------------------------------------------------

 Iter    Time(s)     Res[Rho]     Res[RhoE]      CL(Total)      CD(Total)
  832   0.018821    -8.992652     -8.480236       0.059845       0.000465
  833   0.018836    -9.012438     -8.500694       0.059845       0.000465
  834   0.018830    -9.032121     -8.520828       0.059845       0.000465
  835   0.018827    -9.051645     -8.540667       0.059845       0.000465
  836   0.018821    -9.070733     -8.559903       0.059845       0.000465
  837   0.018816    -9.089174     -8.578295       0.059845       0.000465
  838   0.018810    -9.107324     -8.596420       0.059845       0.000465
  839   0.018808    -9.125399     -8.614574       0.059845       0.000465
  840   0.018802    -9.143368     -8.632646       0.059845       0.000465
  841   0.018803    -9.161474     -8.650957       0.059845       0.000465
  842   0.018810    -9.179749     -8.669516       0.059845       0.000465

-------------------------- File Output Summary --------------------------
Writing comma-separated values (CSV) surface files.
Merging coordinates in the Master node.
Merging solution in the Master node.
Writing SU2 native restart file.
Writing the forces breakdown file.
-------------------------------------------------------------------------

  843   0.019001    -9.198103     -8.688159       0.059845       0.000465
  844   0.018998    -9.216714     -8.707143       0.059845       0.000465
  845   0.018990    -9.235629     -8.726516       0.059845       0.000465
  846   0.018987    -9.254712     -8.746050       0.059845       0.000465
  847   0.018983    -9.273881     -8.765639       0.059845       0.000465
  848   0.018976    -9.292964     -8.785062       0.059845       0.000465
  849   0.018969    -9.311740     -8.804038       0.059845       0.000465
  850   0.018968    -9.330101     -8.822474       0.059845       0.000465
  851   0.018966    -9.348075     -8.840457       0.059845       0.000465
  852   0.018966    -9.365728     -8.858099       0.059845       0.000465
  853   0.018962    -9.383113     -8.875464       0.059845       0.000465
  854   0.018955    -9.400293     -8.892625       0.059845       0.000465
  855   0.018950    -9.417272     -8.909573       0.059845       0.000465
  856   0.018944    -9.433986     -8.926208       0.059845       0.000465
  857   0.018946    -9.450450     -8.942557       0.059845       0.000465
  858   0.018959    -9.466676     -8.958647       0.059845       0.000465
  859   0.018954    -9.482668     -8.974475       0.059845       0.000465
  860   0.018946    -9.498470     -8.990104       0.059845       0.000465
  861   0.018946    -9.514031     -9.005454       0.059845       0.000465
  862   0.018941    -9.529146     -9.020230       0.059846       0.000465
  863   0.018937    -9.543667     -9.034263       0.059846       0.000465
  864   0.018928    -9.557578     -9.047577       0.059846       0.000465
  865   0.018925    -9.570853     -9.060162       0.059846       0.000465
  866   0.018920    -9.583534     -9.072087       0.059846       0.000465
  867   0.018914    -9.595817     -9.083636       0.059846       0.000465
  868   0.018908    -9.607800     -9.094920       0.059846       0.000465
  869   0.018907    -9.619513     -9.105946       0.059846       0.000465
  870   0.018903    -9.631170     -9.117005       0.059846       0.000465
  871   0.018899    -9.642900     -9.128243       0.059846       0.000465

---------------------- Local Time Stepping Summary ----------------------
MG level: 0 -> Min. DT: 0.000497794. Max. DT: 3.62837. CFL: 10.
MG level: 1 -> Min. DT: 0.000799995. Max. DT: 5.71086. CFL: 8.35917.
MG level: 2 -> Min. DT: 0.00155935. Max. DT: 8.31015. CFL: 7.39444.
-------------------------------------------------------------------------

----------------------- Residual Evolution Summary ----------------------
log10[Maximum residual]: -8.42465.
Maximum residual point 782, located at (0.48983, 0.0947615).
-------------------------------------------------------------------------

 Iter    Time(s)     Res[Rho]     Res[RhoE]      CL(Total)      CD(Total)
  872   0.018899    -9.654820     -9.139778       0.059846       0.000465
  873   0.018892    -9.667350     -9.152167       0.059846       0.000465
  874   0.018885    -9.680535     -9.165405       0.059846       0.000465
  875   0.018882    -9.694058     -9.178977       0.059846       0.000465
  876   0.018876    -9.707985     -9.193004       0.059846       0.000465
  877   0.018872    -9.722109     -9.207219       0.059846       0.000465
  878   0.018866    -9.735946     -9.220946       0.059846       0.000465
  879   0.018859    -9.749717     -9.234579       0.059846       0.000465
  880   0.018855    -9.763335     -9.248036       0.059846       0.000465
  881   0.018849    -9.776908     -9.261448       0.059846       0.000465
  882   0.018845    -9.790664     -9.275143       0.059846       0.000465
  883   0.018841    -9.804945     -9.289561       0.059846       0.000465
  884   0.018839    -9.819058     -9.303648       0.059846       0.000465
  885   0.018834    -9.834998     -9.320272       0.059846       0.000465
  886   0.018827    -9.849332     -9.334330       0.059846       0.000465
  887   0.018821    -9.875915     -9.366387       0.059846       0.000465
  888   0.018816    -9.892315     -9.381419       0.059846       0.000465
  889   0.018810    -9.911959     -9.402061       0.059846       0.000465
  890   0.018802    -9.938677     -9.432372       0.059846       0.000465
  891   0.018797    -9.956275     -9.448612       0.059846       0.000465
  892   0.018796    -9.968583     -9.457785       0.059846       0.000465
  893   0.018794    -9.980429     -9.468776       0.059846       0.000465
  894   0.018794   -10.002978     -9.494715       0.059846       0.000465

-------------------------- File Output Summary --------------------------
Writing comma-separated values (CSV) surface files.
Merging coordinates in the Master node.
Merging solution in the Master node.
Writing SU2 native restart file.
Writing the forces breakdown file.
-------------------------------------------------------------------------

History file, closed.

------------------------- Solver Postprocessing -------------------------
Deleted CNumerics container.
Deleted CIntegration container.
Deleted CSolver container.
Deleted CIteration container.
Deleted CInterpolator container.
Deleted CTransfer container.
Deleted CGeometry container.
Deleted CFreeFormDefBox class.
Deleted CSurfaceMovement class.
Deleted CVolumetricMovement class.
Deleted CConfig container.
Deleted COutput class.
-------------------------------------------------------------------------

Completed in 5.751794 seconds on 8 cores.

------------------------- Exit Success (SU2_CFD) ------------------------


-------------------------------------------------------------------------
|    ___ _   _ ___                                                      |
|   / __| | | |_  )   Release 5.0.0  "Raven"                            |
|   \__ \ |_| |/ /                                                      |
|   |___/\___//___|   Suite (Solution Exporting Code)                   |
|                                                                       |
-------------------------------------------------------------------------
| SU2 Original Developers: Dr. Francisco D. Palacios.                   |
|                          Dr. Thomas D. Economon.                      |
-------------------------------------------------------------------------
| SU2 Developers:                                                       |
| - Prof. Juan J. Alonso's group at Stanford University.                |
| - Prof. Piero Colonna's group at Delft University of Technology.      |
| - Prof. Nicolas R. Gauger's group at Kaiserslautern U. of Technology. |
| - Prof. Alberto Guardone's group at Polytechnic University of Milan.  |
| - Prof. Rafael Palacios' group at Imperial College London.            |
| - Prof. Edwin van der Weide's group at the University of Twente.      |
| - Prof. Vincent Terrapon's group at the University of Liege.          |
-------------------------------------------------------------------------
| Copyright (C) 2012-2017 SU2, the open-source CFD code.                |
|                                                                       |
| SU2 is free software; you can redistribute it and/or                  |
| modify it under the terms of the GNU Lesser General Public            |
| License as published by the Free Software Foundation; either          |
| version 2.1 of the License, or (at your option) any later version.    |
|                                                                       |
| SU2 is distributed in the hope that it will be useful,                |
| but WITHOUT ANY WARRANTY; without even the implied warranty of        |
| MERCHANTABILITY or FITNESS FOR A PARTICULAR PURPOSE. See the GNU      |
| Lesser General Public License for more details.                       |
|                                                                       |
| You should have received a copy of the GNU Lesser General Public      |
| License along with SU2. If not, see <http://www.gnu.org/licenses/>.   |
-------------------------------------------------------------------------

------------------------ Physical Case Definition -----------------------
Input mesh file name: mesh_deform.su2

-------------------------- Output Information ---------------------------
The output file format is Paraview ASCII (.vtk).
Flow variables file name: flow.

------------------- Config File Boundary Information --------------------
Euler wall boundary marker(s): airfoil.
Far-field boundary marker(s): farfield.

---------------------- Read Grid File Information -----------------------
Two dimensional problem.
5233 points before parallel partitioning.
Performing linear partitioning of the grid nodes.
10216 interior elements before parallel partitioning.
Calling the partitioning functions.
Building the graph adjacency structure.
Distributing elements across all ranks.
2 surface markers.
200 boundary elements in index 0 (Marker = airfoil).
50 boundary elements in index 1 (Marker = farfield).
Calling ParMETIS...
Finished partitioning using ParMETIS (547 edge cuts).
Communicating partition data and creating halo layers.
10763 interior elements including halo cells. 
10763 triangles.
5796 vertices including ghost points. 
Establishing MPI communication patterns.
Identify vertices.

------------------------- Solution Postprocessing -----------------------
Reading and storing the solution from restart_flow.dat.
Merging connectivities in the Master node.
Merging solution in the Master node.
Writing Paraview ASCII file (volume grid).
Writing Paraview ASCII file (surface grid).

Completed in 0.053420 seconds on 8 cores.

------------------------- Exit Success (SU2_SOL) ------------------------

