
-------------------------------------------------------------------------
|    ___ _   _ ___                                                      |
|   / __| | | |_  )   Release 5.0.0  "Raven"                            |
|   \__ \ |_| |/ /                                                      |
|   |___/\___//___|   Suite (Computational Fluid Dynamics Code)         |
|                                                                       |
-------------------------------------------------------------------------
| SU2 Original Developers: Dr. Francisco D. Palacios.                   |
|                          Dr. Thomas D. Economon.                      |
-------------------------------------------------------------------------
| SU2 Developers:                                                       |
| - Prof. Juan J. Alonso's group at Stanford University.                |
| - Prof. Piero Colonna's group at Delft University of Technology.      |
| - Prof. Nicolas R. Gauger's group at Kaiserslautern U. of Technology. |
| - Prof. Alberto Guardone's group at Polytechnic University of Milan.  |
| - Prof. Rafael Palacios' group at Imperial College London.            |
| - Prof. Edwin van der Weide's group at the University of Twente.      |
| - Prof. Vincent Terrapon's group at the University of Liege.          |
-------------------------------------------------------------------------
| Copyright (C) 2012-2017 SU2, the open-source CFD code.                |
|                                                                       |
| SU2 is free software; you can redistribute it and/or                  |
| modify it under the terms of the GNU Lesser General Public            |
| License as published by the Free Software Foundation; either          |
| version 2.1 of the License, or (at your option) any later version.    |
|                                                                       |
| SU2 is distributed in the hope that it will be useful,                |
| but WITHOUT ANY WARRANTY; without even the implied warranty of        |
| MERCHANTABILITY or FITNESS FOR A PARTICULAR PURPOSE. See the GNU      |
| Lesser General Public License for more details.                       |
|                                                                       |
| You should have received a copy of the GNU Lesser General Public      |
| License along with SU2. If not, see <http://www.gnu.org/licenses/>.   |
-------------------------------------------------------------------------

------------------------ Physical Case Definition -----------------------
Compressible Euler equations.
Mach number: 0.8.
Angle of attack (AoA): 1.25 deg, and angle of sideslip (AoS): 0 deg.
Read flow solution from: solution_flow.dat.
Non-Dimensional simulation (P=1.0, Rho=1.0, T=1.0 at the farfield).
The reference length/area (force coefficient) is 1.
The reference length (moment computation) is 1.
Reference origin (moment computation) is (0.25, 0, 0).
Surface(s) where the force coefficients are evaluated: airfoil.
Surface(s) plotted in the output file: airfoil.
Surface(s) affected by the design variables: airfoil.
Input mesh file name: mesh_NACA0012_inv_deform.su2

---------------------- Space Numerical Integration ----------------------
Jameson-Schmidt-Turkel scheme for the flow inviscid terms.
JST viscous coefficients (1st, 2nd & 4th): 0.15, 0.5, 0.02.
The method includes a grid stretching correction (p = 0.3).
Second order integration.
Gradient computation using Green-Gauss theorem.

---------------------- Time Numerical Integration -----------------------
Local time stepping (steady state simulation).
Euler implicit method for the flow equations.
V Multigrid Cycle, with 2 multigrid levels.
Damping factor for the residual restriction: 1.
Damping factor for the correction prolongation: 1.
No CFL adaptation.
Multigrid Level:                       0     1     2
Courant-Friedrichs-Lewy number:       10
MG PreSmooth coefficients:             1     2     3
MG PostSmooth coefficients:            0     0     0
MG CorrecSmooth coefficients:          0     0     0

------------------------- Convergence Criteria --------------------------
Maximum number of iterations: 1000.
Reduce the density residual 6 orders of magnitude.
The minimum bound for the density residual is 10^(-13).
Start convergence criteria at iteration 10.

-------------------------- Output Information ---------------------------
Writing a flow solution every 250 iterations.
Writing the convergence history every 1 iterations.
The output file format is Tecplot ASCII (.dat).
Convergence history file name: history_direct.
Forces breakdown file name: forces_breakdown.dat.
Surface flow coefficients file name: surface_flow.
Flow variables file name: flow.
Restart flow file name: restart_flow.dat.

------------------- Config File Boundary Information --------------------
Euler wall boundary marker(s): airfoil.
Far-field boundary marker(s): farfield.

---------------------- Read Grid File Information -----------------------
Two dimensional problem.
5233 points before parallel partitioning.
Performing linear partitioning of the grid nodes.
10216 interior elements before parallel partitioning.
Calling the partitioning functions.
Building the graph adjacency structure.
Distributing elements across all ranks.
2 surface markers.
200 boundary elements in index 0 (Marker = airfoil).
50 boundary elements in index 1 (Marker = farfield).
Calling ParMETIS...
Finished partitioning using ParMETIS (547 edge cuts).
Communicating partition data and creating halo layers.
10763 interior elements including halo cells. 
10763 triangles.
5796 vertices including ghost points. 
Establishing MPI communication patterns.

------------------------- Geometry Preprocessing ------------------------
Setting point connectivity.
Renumbering points (Reverse Cuthill McKee Ordering).
Recomputing point connectivity.
Setting element connectivity.
Checking the numerical grid orientation.
Identifying edges and vertices.
Computing centers of gravity.
Setting the control volume structure.
Area of the computational grid: 1.3e+03.
Searching for the closest normal neighbors to the surfaces.
Compute the surface curvature.
Max K: 7.84e+03. Mean K: 35.7. Standard deviation K: 494.
Checking for periodicity.
Setting the multigrid structure.
MG level: 0 -> CVs: 5796. Agglomeration rate 1/1.00. CFL 10.
MG level: 1 -> CVs: 1800. Agglomeration rate 1/3.22. CFL 8.36.
MG level: 2 -> CVs: 626. Agglomeration rate 1/2.88. CFL 7.39.
Computing wall distances.
Wetted area = 2.03 m.
Area projection in the x-plane = 0.107 m, y-plane = 1 m.

------------------------- Driver information --------------------------
A Fluid driver has been instantiated.

------------------------ Iteration Preprocessing ------------------------
Zone 1: Euler/Navier-Stokes/RANS flow iteration.

------------------------- Solver Preprocessing --------------------------
Inviscid flow: Computing density based on free-stream
temperature and pressure using the ideal gas law.
Force coefficients computed using free-stream values.
-- Input conditions:
Fluid Model: STANDARD_AIR 
Specific gas constant: 287.058 N.m/kg.K.
Specific gas constant (non-dim): 1
Specific Heat Ratio: 1.4
Free-stream static pressure: 101325 Pa.
Free-stream total pressure: 154454 Pa.
Free-stream temperature: 288.15 K.
Free-stream density: 1.22498 kg/m^3.
Free-stream velocity: (272.173, 5.93883) m/s. Magnitude: 272.238 m/s (529.186 KTS).
Free-stream total energy per unit mass: 243846 m^2/s^2.
-- Reference values:
Reference specific gas constant: 287.058 N.m/kg.K.
Reference pressure: 101325 Pa.
Reference temperature: 288.15 K.
Reference density: 1.22498 kg/m^3.
Reference velocity: 287.603 m/s.
Reference energy per unit mass: 82715.8 m^2/s^2.
-- Resulting non-dimensional state:
Mach number (non-dim): 0.8
Specific gas constant (non-dim): 1
Free-stream temperature (non-dim): 1
Free-stream pressure (non-dim): 1
Free-stream density (non-dim): 1
Free-stream velocity (non-dim): (0.946348, 0.0206494). Magnitude: 0.946573
Free-stream total energy per unit mass (non-dim): 2.948

Initialize Jacobian structure (Euler). MG level: 0.
Initialize Jacobian structure (Euler). MG level: 1.
Initialize Jacobian structure (Euler). MG level: 2.

----------------- Integration and Numerics Preprocessing ----------------
Integration Preprocessing.
Numerics Preprocessing.

------------------------------ Begin Solver -----------------------------

---------------------- Local Time Stepping Summary ----------------------
MG level: 0 -> Min. DT: 0.000497818. Max. DT: 3.62878. CFL: 10.
MG level: 1 -> Min. DT: 0.000799961. Max. DT: 5.71121. CFL: 8.35917.
MG level: 2 -> Min. DT: 0.00155933. Max. DT: 8.31085. CFL: 7.39444.
-------------------------------------------------------------------------

----------------------- Residual Evolution Summary ----------------------
log10[Maximum residual]: -4.67368.
Maximum residual point 153, located at (0.55906, 0.044627).
-------------------------------------------------------------------------

 Iter    Time(s)     Res[Rho]     Res[RhoE]      CL(Total)      CD(Total)
 2483   0.015776    -5.788029     -5.191650       0.071034       0.000576
 2484   0.018891    -5.903119     -5.303850       0.070860       0.000491
 2485   0.017691    -5.888923     -5.291628       0.070774       0.000491
 2486   0.017048    -5.868625     -5.269811       0.070630       0.000493
 2487   0.016643    -5.838612     -5.239722       0.070471       0.000490
 2488   0.016290    -5.808130     -5.210540       0.070296       0.000488
 2489   0.016086    -5.785660     -5.190247       0.070115       0.000486
 2490   0.015892    -5.781605     -5.189946       0.069934       0.000482
 2491   0.015735    -5.788714     -5.201440       0.069761       0.000477
 2492   0.015716    -5.796496     -5.212485       0.069603       0.000471
 2493   0.015709    -5.801484     -5.218927       0.069460       0.000465
 2494   0.015681    -5.805770     -5.223414       0.069327       0.000459
 2495   0.015795    -5.811707     -5.229075       0.069202       0.000454
 2496   0.015816    -5.820758     -5.237905       0.069084       0.000449
 2497   0.015772    -5.833433     -5.250697       0.068976       0.000445
 2498   0.016182    -5.848813     -5.266600       0.068878       0.000443
 2499   0.016528    -5.865510     -5.284241       0.068792       0.000441
 2500   0.016461    -5.883740     -5.304023       0.068717       0.000440
 2501   0.016446    -5.905011     -5.327711       0.068651       0.000440
 2502   0.016378    -5.929724     -5.355695       0.068595       0.000440
 2503   0.016443    -5.957909     -5.387955       0.068546       0.000442
 2504   0.016456    -5.990840     -5.426141       0.068503       0.000443
 2505   0.016471    -6.027576     -5.469298       0.068465       0.000445
 2506   0.016596    -6.064169     -5.512547       0.068433       0.000448
 2507   0.016709    -6.096471     -5.550618       0.068405       0.000451
 2508   0.016733    -6.119831     -5.577416       0.068383       0.000454
 2509   0.016799    -6.135311     -5.594518       0.068364       0.000457
 2510   0.016860    -6.145236     -5.605292       0.068349       0.000460
 2511   0.016968    -6.145656     -5.604514       0.068337       0.000463
 2512   0.017209    -6.132555     -5.587229       0.068328       0.000466
 2513   0.017187    -6.111840     -5.561621       0.068318       0.000468
 2514   0.017101    -6.091406     -5.537593       0.068308       0.000470
 2515   0.017030    -6.075829     -5.519976       0.068296       0.000471
 2516   0.016950    -6.065807     -5.508835       0.068283       0.000471
 2517   0.016901    -6.061242     -5.503818       0.068268       0.000472
 2518   0.016829    -6.062262     -5.505046       0.068252       0.000471
 2519   0.016763    -6.068976     -5.512621       0.068236       0.000470
 2520   0.016700    -6.081562     -5.526759       0.068220       0.000469
 2521   0.016648    -6.099568     -5.547060       0.068204       0.000468
 2522   0.016628    -6.120337     -5.570610       0.068189       0.000467

---------------------- Local Time Stepping Summary ----------------------
MG level: 0 -> Min. DT: 0.000497818. Max. DT: 3.62878. CFL: 10.
MG level: 1 -> Min. DT: 0.000800034. Max. DT: 5.71123. CFL: 8.35917.
MG level: 2 -> Min. DT: 0.00155942. Max. DT: 8.31088. CFL: 7.39444.
-------------------------------------------------------------------------

----------------------- Residual Evolution Summary ----------------------
log10[Maximum residual]: -5.13658.
Maximum residual point 1182, located at (0.628699, 0.128507).
-------------------------------------------------------------------------

 Iter    Time(s)     Res[Rho]     Res[RhoE]      CL(Total)      CD(Total)
 2523   0.016584    -6.140912     -5.594113       0.068175       0.000465
 2524   0.016587    -6.160981     -5.617356       0.068162       0.000464
 2525   0.016597    -6.179192     -5.638475       0.068149       0.000462
 2526   0.016549    -6.193289     -5.654296       0.068136       0.000461
 2527   0.016499    -6.203289     -5.664840       0.068124       0.000460
 2528   0.016601    -6.209861     -5.671105       0.068111       0.000459
 2529   0.016645    -6.214509     -5.675144       0.068099       0.000458
 2530   0.016631    -6.218662     -5.678817       0.068086       0.000458
 2531   0.016631    -6.222655     -5.682471       0.068074       0.000458
 2532   0.016635    -6.226517     -5.686068       0.068062       0.000458
 2533   0.016659    -6.230291     -5.689662       0.068051       0.000458
 2534   0.016665    -6.234215     -5.693548       0.068039       0.000458
 2535   0.016696    -6.238579     -5.698072       0.068029       0.000458
 2536   0.016691    -6.243558     -5.703418       0.068018       0.000458
 2537   0.016692    -6.249241     -5.709657       0.068008       0.000458
 2538   0.016683    -6.255663     -5.716793       0.067999       0.000458
 2539   0.016725    -6.262877     -5.724866       0.067990       0.000458
 2540   0.016768    -6.270876     -5.733851       0.067981       0.000457
 2541   0.016766    -6.279616     -5.743687       0.067973       0.000457
 2542   0.016754    -6.289107     -5.754382       0.067965       0.000457
 2543   0.016732    -6.299436     -5.766051       0.067957       0.000456
 2544   0.016717    -6.310717     -5.778835       0.067950       0.000456
 2545   0.016702    -6.322985     -5.792767       0.067943       0.000456
 2546   0.016667    -6.336261     -5.807865       0.067936       0.000456
 2547   0.016638    -6.350395     -5.823910       0.067929       0.000455
 2548   0.016600    -6.365204     -5.840637       0.067923       0.000455
 2549   0.016569    -6.380427     -5.857721       0.067916       0.000455
 2550   0.016540    -6.395718     -5.874739       0.067910       0.000455
 2551   0.016509    -6.410721     -5.891243       0.067904       0.000454
 2552   0.016478    -6.425059     -5.906759       0.067898       0.000454
 2553   0.016454    -6.438459     -5.920992       0.067893       0.000454
 2554   0.016426    -6.450975     -5.934146       0.067887       0.000454
 2555   0.016405    -6.462793     -5.946552       0.067883       0.000454
 2556   0.016398    -6.474119     -5.958442       0.067878       0.000454
 2557   0.016373    -6.485275     -5.970173       0.067874       0.000454
 2558   0.016361    -6.496491     -5.981978       0.067871       0.000454
 2559   0.016489    -6.507873     -5.993927       0.067868       0.000454
 2560   0.016624    -6.519471     -6.006045       0.067865       0.000453
 2561   0.016739    -6.531176     -6.018139       0.067863       0.000453
 2562   0.016829    -6.542817     -6.029983       0.067862       0.000453

---------------------- Local Time Stepping Summary ----------------------
MG level: 0 -> Min. DT: 0.000497851. Max. DT: 3.62878. CFL: 10.
MG level: 1 -> Min. DT: 0.000800007. Max. DT: 5.71123. CFL: 8.35917.
MG level: 2 -> Min. DT: 0.00155946. Max. DT: 8.31088. CFL: 7.39444.
-------------------------------------------------------------------------

----------------------- Residual Evolution Summary ----------------------
log10[Maximum residual]: -5.37818.
Maximum residual point 357, located at (0.520322, 0.0603598).
-------------------------------------------------------------------------

 Iter    Time(s)     Res[Rho]     Res[RhoE]      CL(Total)      CD(Total)
 2563   0.016997    -6.554311     -6.041501       0.067861       0.000453
 2564   0.017081    -6.565685     -6.052754       0.067860       0.000453
 2565   0.017155    -6.577075     -6.063958       0.067860       0.000453
 2566   0.017230    -6.588684     -6.075399       0.067860       0.000454
 2567   0.017306    -6.600676     -6.087338       0.067861       0.000454
 2568   0.017397    -6.613303     -6.100074       0.067862       0.000454
 2569   0.017492    -6.626768     -6.113795       0.067863       0.000454
 2570   0.017555    -6.641093     -6.128491       0.067864       0.000454
 2571   0.017620    -6.656171     -6.143993       0.067866       0.000454
 2572   0.017683    -6.671873     -6.160130       0.067868       0.000454
 2573   0.017745    -6.688075     -6.176752       0.067870       0.000454
 2574   0.017805    -6.704634     -6.193696       0.067872       0.000454
 2575   0.017862    -6.721483     -6.210901       0.067874       0.000454
 2576   0.017916    -6.738582     -6.228329       0.067876       0.000454
 2577   0.017968    -6.755866     -6.245897       0.067879       0.000454
 2578   0.018005    -6.773222     -6.263455       0.067881       0.000454
 2579   0.018007    -6.790588     -6.280939       0.067883       0.000454
 2580   0.017975    -6.807879     -6.298250       0.067886       0.000454
 2581   0.017980    -6.825041     -6.315344       0.067888       0.000454
 2582   0.017943    -6.842006     -6.332152       0.067890       0.000454
 2583   0.017920    -6.858675     -6.348519       0.067892       0.000454
 2584   0.017896    -6.874561     -6.363737       0.067895       0.000454
 2585   0.017872    -6.888833     -6.376765       0.067897       0.000454
 2586   0.017855    -6.901543     -6.387966       0.067899       0.000454
 2587   0.017827    -6.914427     -6.399875       0.067901       0.000454
 2588   0.017795    -6.928545     -6.413826       0.067903       0.000454
 2589   0.017775    -6.947988     -6.435410       0.067905       0.000454
 2590   0.017753    -6.970709     -6.460602       0.067907       0.000454
 2591   0.017731    -6.986652     -6.474585       0.067909       0.000454
 2592   0.017703    -7.008521     -6.498161       0.067911       0.000454
 2593   0.017692    -7.029113     -6.519084       0.067912       0.000454
 2594   0.017667    -7.047102     -6.536612       0.067914       0.000454
 2595   0.017638    -7.066901     -6.556612       0.067915       0.000454
 2596   0.017611    -7.086348     -6.576052       0.067917       0.000454
 2597   0.017583    -7.108833     -6.600176       0.067918       0.000454
 2598   0.017564    -7.126856     -6.616506       0.067919       0.000454
 2599   0.017541    -7.148781     -6.639685       0.067920       0.000454
 2600   0.017520    -7.169383     -6.660202       0.067921       0.000454
 2601   0.017517    -7.188538     -6.678384       0.067922       0.000454
 2602   0.017493    -7.207799     -6.697196       0.067923       0.000454

---------------------- Local Time Stepping Summary ----------------------
MG level: 0 -> Min. DT: 0.000497835. Max. DT: 3.62878. CFL: 10.
MG level: 1 -> Min. DT: 0.000800011. Max. DT: 5.71123. CFL: 8.35917.
MG level: 2 -> Min. DT: 0.00155943. Max. DT: 8.31088. CFL: 7.39444.
-------------------------------------------------------------------------

----------------------- Residual Evolution Summary ----------------------
log10[Maximum residual]: -6.08073.
Maximum residual point 732, located at (0.41019, 0.0950085).
-------------------------------------------------------------------------

 Iter    Time(s)     Res[Rho]     Res[RhoE]      CL(Total)      CD(Total)
 2603   0.017474    -7.227019     -6.716058       0.067924       0.000454
 2604   0.017456    -7.245120     -6.733404       0.067924       0.000454
 2605   0.017438    -7.265751     -6.754522       0.067925       0.000454
 2606   0.017414    -7.284998     -6.773563       0.067926       0.000454
 2607   0.017392    -7.305780     -6.794510       0.067927       0.000454
 2608   0.017374    -7.325033     -6.813367       0.067928       0.000454
 2609   0.017349    -7.345604     -6.833997       0.067928       0.000454
 2610   0.017329    -7.364511     -6.852312       0.067929       0.000454
 2611   0.017312    -7.384638     -6.872495       0.067930       0.000454
 2612   0.017340    -7.404067     -6.891733       0.067931       0.000454
 2613   0.017333    -7.424611     -6.912371       0.067931       0.000454
 2614   0.017317    -7.442649     -6.929468       0.067932       0.000454
 2615   0.017304    -7.463322     -6.950612       0.067933       0.000454
 2616   0.017287    -7.479520     -6.965278       0.067933       0.000454
 2617   0.017272    -7.501289     -6.988317       0.067934       0.000454
 2618   0.017255    -7.518360     -7.004215       0.067934       0.000454
 2619   0.017234    -7.539509     -7.026181       0.067935       0.000454
 2620   0.017214    -7.557677     -7.043781       0.067935       0.000454
 2621   0.017197    -7.577785     -7.064169       0.067936       0.000454
 2622   0.017175    -7.597733     -7.084510       0.067936       0.000454
 2623   0.017159    -7.618303     -7.105401       0.067937       0.000454
 2624   0.017149    -7.636758     -7.123519       0.067937       0.000454
 2625   0.017131    -7.657858     -7.145331       0.067938       0.000454
 2626   0.017117    -7.671367     -7.156512       0.067938       0.000454
 2627   0.017113    -7.694610     -7.182674       0.067938       0.000454
 2628   0.017109    -7.711232     -7.197747       0.067939       0.000454
 2629   0.017149    -7.716209     -7.197856       0.067939       0.000454
 2630   0.017135    -7.744519     -7.233026       0.067939       0.000454
 2631   0.017117    -7.760703     -7.248048       0.067939       0.000454
 2632   0.017103    -7.773334     -7.257913       0.067940       0.000454
 2633   0.017085    -7.799328     -7.288638       0.067940       0.000454
 2634   0.017066    -7.817055     -7.305295       0.067940       0.000454
 2635   0.017048    -7.834925     -7.322244       0.067940       0.000454
 2636   0.017032    -7.857586     -7.347403       0.067940       0.000454
 2637   0.017019    -7.872974     -7.360787       0.067940       0.000454
 2638   0.017004    -7.892307     -7.381048       0.067941       0.000454
 2639   0.016990    -7.910007     -7.398891       0.067941       0.000454
 2640   0.016976    -7.928155     -7.417252       0.067941       0.000454
 2641   0.016965    -7.946075     -7.435461       0.067941       0.000454
 2642   0.016950    -7.963965     -7.453629       0.067941       0.000454

---------------------- Local Time Stepping Summary ----------------------
MG level: 0 -> Min. DT: 0.000497832. Max. DT: 3.62878. CFL: 10.
MG level: 1 -> Min. DT: 0.000800012. Max. DT: 5.71123. CFL: 8.35917.
MG level: 2 -> Min. DT: 0.00155942. Max. DT: 8.31088. CFL: 7.39444.
-------------------------------------------------------------------------

----------------------- Residual Evolution Summary ----------------------
log10[Maximum residual]: -6.79205.
Maximum residual point 1353, located at (0.353485, 0.15649).
-------------------------------------------------------------------------

 Iter    Time(s)     Res[Rho]     Res[RhoE]      CL(Total)      CD(Total)
 2643   0.016933    -7.980835     -7.470313       0.067941       0.000454
 2644   0.016925    -8.000006     -7.490610       0.067941       0.000454
 2645   0.016910    -8.016349     -7.506242       0.067941       0.000454
 2646   0.016902    -8.035046     -7.525861       0.067941       0.000454
 2647   0.016890    -8.051821     -7.542365       0.067941       0.000454
 2648   0.016876    -8.070652     -7.562091       0.067941       0.000454
 2649   0.016867    -8.087618     -7.578720       0.067941       0.000454
 2650   0.016857    -8.105714     -7.597270       0.067941       0.000454
 2651   0.016847    -8.122225     -7.613282       0.067940       0.000454
 2652   0.016846    -8.139108     -7.630188       0.067940       0.000454
 2653   0.016836    -8.155247     -7.645875       0.067940       0.000454
 2654   0.016824    -8.171044     -7.661348       0.067940       0.000454
 2655   0.016811    -8.186682     -7.676502       0.067940       0.000454
 2656   0.016800    -8.201619     -7.690931       0.067940       0.000454
 2657   0.016788    -8.216915     -7.705716       0.067940       0.000454
 2658   0.016779    -8.230983     -7.719042       0.067940       0.000454
 2659   0.016773    -8.246456     -7.734291       0.067939       0.000454
 2660   0.016760    -8.259664     -7.746430       0.067939       0.000454
 2661   0.016749    -8.276027     -7.763145       0.067939       0.000454
 2662   0.016739    -8.288821     -7.774621       0.067939       0.000454
 2663   0.016728    -8.305962     -7.792421       0.067939       0.000454
 2664   0.016724    -8.318500     -7.803474       0.067939       0.000454
 2665   0.016716    -8.336207     -7.822020       0.067939       0.000454
 2666   0.016709    -8.349200     -7.833655       0.067938       0.000454
 2667   0.016697    -8.366932     -7.852066       0.067938       0.000454
 2668   0.016689    -8.380617     -7.864663       0.067938       0.000454
 2669   0.016677    -8.398305     -7.882851       0.067938       0.000454
 2670   0.016667    -8.412602     -7.896251       0.067938       0.000454
 2671   0.016655    -8.430089     -7.914034       0.067938       0.000454
 2672   0.016645    -8.444150     -7.927046       0.067937       0.000454
 2673   0.016635    -8.461362     -7.944541       0.067937       0.000454
 2674   0.016628    -8.475353     -7.957488       0.067937       0.000454
 2675   0.016617    -8.491822     -7.973992       0.067937       0.000454
 2676   0.016606    -8.505990     -7.987342       0.067937       0.000454
 2677   0.016595    -8.521893     -8.003119       0.067937       0.000454
 2678   0.016645    -8.536197     -8.016773       0.067937       0.000454
 2679   0.016677    -8.551887     -8.032328       0.067936       0.000454
 2680   0.016710    -8.566115     -8.045920       0.067936       0.000454
 2681   0.016740    -8.581646     -8.061354       0.067936       0.000454
 2682   0.016771    -8.596415     -8.075773       0.067936       0.000454

---------------------- Local Time Stepping Summary ----------------------
MG level: 0 -> Min. DT: 0.000497835. Max. DT: 3.62878. CFL: 10.
MG level: 1 -> Min. DT: 0.000800012. Max. DT: 5.71123. CFL: 8.35917.
MG level: 2 -> Min. DT: 0.00155943. Max. DT: 8.31088. CFL: 7.39444.
-------------------------------------------------------------------------

----------------------- Residual Evolution Summary ----------------------
log10[Maximum residual]: -7.41851.
Maximum residual point 732, located at (0.41019, 0.0950085).
-------------------------------------------------------------------------

 Iter    Time(s)     Res[Rho]     Res[RhoE]      CL(Total)      CD(Total)
 2683   0.016803    -8.611484     -8.090535       0.067936       0.000454
 2684   0.016834    -8.626205     -8.104960       0.067936       0.000454
 2685   0.016864    -8.641504     -8.120171       0.067936       0.000454
 2686   0.016909    -8.655727     -8.133895       0.067935       0.000454
 2687   0.016909    -8.670103     -8.147950       0.067935       0.000454
 2688   0.016917    -8.684770     -8.162549       0.067935       0.000454
 2689   0.016930    -8.698629     -8.175951       0.067935       0.000454
 2690   0.016946    -8.711591     -8.188279       0.067935       0.000454
 2691   0.016935    -8.725767     -8.202518       0.067935       0.000454
 2692   0.016922    -8.739521     -8.216094       0.067935       0.000454
 2693   0.016910    -8.750938     -8.226442       0.067935       0.000454
 2694   0.016900    -8.763487     -8.238771       0.067935       0.000454
 2695   0.016889    -8.778235     -8.254184       0.067935       0.000454
 2696   0.016877    -8.789553     -8.264522       0.067935       0.000454
 2697   0.016864    -8.799670     -8.273547       0.067934       0.000454
 2698   0.016853    -8.815422     -8.290739       0.067934       0.000454
 2699   0.016843    -8.830566     -8.306490       0.067934       0.000454
 2700   0.016832    -8.839237     -8.313064       0.067934       0.000454
 2701   0.016825    -8.852602     -8.326884       0.067934       0.000454
 2702   0.016816    -8.874494     -8.352437       0.067934       0.000454
 2703   0.016834    -8.887198     -8.363788       0.067934       0.000454
 2704   0.016830    -8.892492     -8.365678       0.067934       0.000454
 2705   0.016820    -8.916599     -8.394967       0.067934       0.000454
 2706   0.016807    -8.943158     -8.425981       0.067934       0.000454
 2707   0.016796    -8.939542     -8.413850       0.067934       0.000454
 2708   0.016784    -8.954587     -8.430434       0.067934       0.000454
 2709   0.016773    -8.989981     -8.477008       0.067934       0.000454
 2710   0.016763    -8.983145     -8.460055       0.067934       0.000454
 2711   0.016754    -9.016276     -8.500998       0.067934       0.000454
 2712   0.016750    -9.042335     -8.531069       0.067934       0.000454
 2713   0.016743    -9.030201     -8.507041       0.067934       0.000454
 2714   0.016735    -9.075137     -8.566766       0.067934       0.000454
 2715   0.016725    -9.091695     -8.581024       0.067934       0.000454
 2716   0.016715    -9.083544     -8.561943       0.067934       0.000454
 2717   0.016705    -9.125615     -8.618072       0.067934       0.000454
 2718   0.016695    -9.138780     -8.627781       0.067934       0.000454
 2719   0.016689    -9.146800     -8.630155       0.067933       0.000454
 2720   0.016681    -9.178433     -8.670071       0.067933       0.000454
 2721   0.016671    -9.192740     -8.681535       0.067933       0.000454
 2722   0.016660    -9.213965     -8.703622       0.067933       0.000454

---------------------- Local Time Stepping Summary ----------------------
MG level: 0 -> Min. DT: 0.000497835. Max. DT: 3.62878. CFL: 10.
MG level: 1 -> Min. DT: 0.000800011. Max. DT: 5.71123. CFL: 8.35917.
MG level: 2 -> Min. DT: 0.00155943. Max. DT: 8.31088. CFL: 7.39444.
-------------------------------------------------------------------------

----------------------- Residual Evolution Summary ----------------------
log10[Maximum residual]: -8.00418.
Maximum residual point 1353, located at (0.353485, 0.15649).
-------------------------------------------------------------------------

 Iter    Time(s)     Res[Rho]     Res[RhoE]      CL(Total)      CD(Total)
 2723   0.016651    -9.237967     -8.730367       0.067933       0.000454
 2724   0.016641    -9.257830     -8.749689       0.067933       0.000454
 2725   0.016633    -9.277986     -8.769987       0.067933       0.000454
 2726   0.016625    -9.298003     -8.790459       0.067933       0.000454
 2727   0.016615    -9.317397     -8.809858       0.067933       0.000454
 2728   0.016605    -9.335637     -8.827675       0.067933       0.000454
 2729   0.016597    -9.353910     -8.845818       0.067933       0.000454
 2730   0.016588    -9.371757     -8.863344       0.067933       0.000454
 2731   0.016581    -9.389364     -8.880532       0.067933       0.000454
 2732   0.016571    -9.406713     -8.897432       0.067933       0.000454
 2733   0.016563    -9.424648     -8.915294       0.067933       0.000454

-------------------------- File Output Summary --------------------------
Writing comma-separated values (CSV) surface files.
Merging coordinates in the Master node.
Merging solution in the Master node.
Writing SU2 native restart file.
Writing the forces breakdown file.
-------------------------------------------------------------------------

 2734   0.016737    -9.443390     -8.934204       0.067933       0.000454
 2735   0.016729    -9.462531     -8.953377       0.067933       0.000454
 2736   0.016741    -9.481327     -8.971818       0.067933       0.000454
 2737   0.016741    -9.499590     -8.989506       0.067933       0.000454
 2738   0.016731    -9.517536     -9.006857       0.067933       0.000454
 2739   0.016723    -9.535395     -9.024168       0.067933       0.000454
 2740   0.016716    -9.553020     -9.041173       0.067933       0.000454
 2741   0.016708    -9.570521     -9.058095       0.067933       0.000454
 2742   0.016700    -9.587954     -9.074997       0.067933       0.000454
 2743   0.016691    -9.605176     -9.091651       0.067933       0.000454
 2744   0.016684    -9.622275     -9.108188       0.067933       0.000454
 2745   0.016677    -9.639274     -9.124666       0.067933       0.000454
 2746   0.016669    -9.656350     -9.141302       0.067933       0.000454
 2747   0.016662    -9.673007     -9.157380       0.067933       0.000454
 2748   0.016653    -9.689414     -9.173185       0.067933       0.000454
 2749   0.016646    -9.705602     -9.188819       0.067933       0.000454
 2750   0.016638    -9.721539     -9.204179       0.067933       0.000454
 2751   0.016631    -9.735618     -9.217021       0.067933       0.000454
 2752   0.016637    -9.749930     -9.230639       0.067933       0.000454
 2753   0.016654    -9.765261     -9.245926       0.067933       0.000454
 2754   0.016656    -9.780370     -9.260686       0.067933       0.000454
 2755   0.016648    -9.794105     -9.273541       0.067934       0.000454
 2756   0.016642    -9.808635     -9.287878       0.067934       0.000454
 2757   0.016633    -9.825042     -9.304939       0.067934       0.000454
 2758   0.016626    -9.840502     -9.320175       0.067934       0.000454
 2759   0.016617    -9.853836     -9.332501       0.067934       0.000454
 2760   0.016609    -9.868726     -9.347552       0.067934       0.000454
 2761   0.016600    -9.884284     -9.363478       0.067934       0.000454
 2762   0.016595    -9.896580     -9.374558       0.067934       0.000454

---------------------- Local Time Stepping Summary ----------------------
MG level: 0 -> Min. DT: 0.000497835. Max. DT: 3.62878. CFL: 10.
MG level: 1 -> Min. DT: 0.000800011. Max. DT: 5.71123. CFL: 8.35917.
MG level: 2 -> Min. DT: 0.00155943. Max. DT: 8.31088. CFL: 7.39444.
-------------------------------------------------------------------------

----------------------- Residual Evolution Summary ----------------------
log10[Maximum residual]: -8.71218.
Maximum residual point 732, located at (0.41019, 0.0950085).
-------------------------------------------------------------------------

 Iter    Time(s)     Res[Rho]     Res[RhoE]      CL(Total)      CD(Total)
 2763   0.016588    -9.908205     -9.385287       0.067934       0.000454
 2764   0.016581    -9.922556     -9.400230       0.067934       0.000454
 2765   0.016575    -9.933718     -9.410374       0.067934       0.000454
 2766   0.016567    -9.940374     -9.414665       0.067934       0.000454
 2767   0.016558    -9.953055     -9.428181       0.067934       0.000454
 2768   0.016551    -9.968071     -9.444494       0.067934       0.000454
 2769   0.016544    -9.972391     -9.445443       0.067934       0.000454
 2770   0.016535    -9.980895     -9.453258       0.067934       0.000454
 2771   0.016528   -10.004317     -9.482033       0.067934       0.000454
 2772   0.016521   -10.017388     -9.494207       0.067934       0.000454
 2773   0.016514   -10.019269     -9.491445       0.067934       0.000454
 2774   0.016507   -10.044161     -9.522253       0.067934       0.000454
 2775   0.016501   -10.075596     -9.560566       0.067934       0.000454
 2776   0.016494   -10.071852     -9.547335       0.067934       0.000454
 2777   0.016496   -10.082204     -9.557339       0.067934       0.000454
 2778   0.016490   -10.120248     -9.608357       0.067934       0.000454
 2779   0.016486   -10.116802     -9.595566       0.067934       0.000454
 2780   0.016479   -10.139503     -9.621540       0.067934       0.000454
 2781   0.016471   -10.168760     -9.657451       0.067934       0.000454
 2782   0.016466   -10.156862     -9.633939       0.067934       0.000454
 2783   0.016457   -10.193072     -9.680700       0.067934       0.000454
 2784   0.016453   -10.213508     -9.702793       0.067934       0.000454
 2785   0.016445   -10.201635     -9.679296       0.067934       0.000454
 2786   0.016438   -10.246178     -9.738808       0.067934       0.000454
 2787   0.016432   -10.258781     -9.747970       0.067934       0.000454
 2788   0.016424   -10.252683     -9.732193       0.067934       0.000454
 2789   0.016421   -10.297588     -9.792335       0.067934       0.000454
 2790   0.016416   -10.309244     -9.799154       0.067934       0.000454
 2791   0.016425   -10.306662     -9.787244       0.067934       0.000454
 2792   0.016418   -10.346008     -9.839650       0.067934       0.000454
 2793   0.016413   -10.357362     -9.846464       0.067934       0.000454
 2794   0.016407   -10.365876     -9.849824       0.067934       0.000454
 2795   0.016401   -10.396491     -9.888363       0.067934       0.000454
 2796   0.016394   -10.412105     -9.901647       0.067934       0.000454
 2797   0.016387   -10.430038     -9.918714       0.067934       0.000454
 2798   0.016382   -10.452469     -9.943518       0.067934       0.000454
 2799   0.016378   -10.472016     -9.962963       0.067934       0.000454
 2800   0.016373   -10.491721     -9.982619       0.067934       0.000454
 2801   0.016367   -10.511380    -10.002499       0.067934       0.000454
 2802   0.016360   -10.530109    -10.020966       0.067934       0.000454

---------------------- Local Time Stepping Summary ----------------------
MG level: 0 -> Min. DT: 0.000497835. Max. DT: 3.62878. CFL: 10.
MG level: 1 -> Min. DT: 0.000800011. Max. DT: 5.71123. CFL: 8.35917.
MG level: 2 -> Min. DT: 0.00155943. Max. DT: 8.31088. CFL: 7.39444.
-------------------------------------------------------------------------

----------------------- Residual Evolution Summary ----------------------
log10[Maximum residual]: -9.35357.
Maximum residual point 1353, located at (0.353485, 0.15649).
-------------------------------------------------------------------------

 Iter    Time(s)     Res[Rho]     Res[RhoE]      CL(Total)      CD(Total)
 2803   0.016375   -10.548823    -10.039529       0.067934       0.000454
 2804   0.016373   -10.567804    -10.058521       0.067934       0.000454
 2805   0.016367   -10.587167    -10.077961       0.067934       0.000454
 2806   0.016361   -10.604336    -10.094062       0.067934       0.000454
 2807   0.016356   -10.623242    -10.113148       0.067934       0.000454
 2808   0.016350   -10.642043    -10.131868       0.067934       0.000454
 2809   0.016345   -10.661697    -10.151605       0.067934       0.000454
 2810   0.016338   -10.679374    -10.168238       0.067934       0.000454
 2811   0.016334   -10.698216    -10.187008       0.067934       0.000454
 2812   0.016329   -10.715907    -10.203951       0.067934       0.000454
 2813   0.016322   -10.735466    -10.223821       0.067934       0.000454
 2814   0.016316   -10.753387    -10.240868       0.067934       0.000454
 2815   0.016309   -10.771783    -10.258921       0.067934       0.000454
 2816   0.016304   -10.789677    -10.276209       0.067934       0.000454
 2817   0.016300   -10.808224    -10.294645       0.067934       0.000454
 2818   0.016295   -10.825926    -10.311587       0.067934       0.000454
 2819   0.016302   -10.843688    -10.328952       0.067934       0.000454
 2820   0.016318   -10.861047    -10.345626       0.067934       0.000454
 2821   0.016320   -10.877669    -10.361584       0.067934       0.000454
 2822   0.016316   -10.894978    -10.378523       0.067934       0.000454
 2823   0.016315   -10.911027    -10.393799       0.067934       0.000454
 2824   0.016310   -10.927553    -10.409807       0.067934       0.000454
 2825   0.016305   -10.942035    -10.423304       0.067934       0.000454
 2826   0.016301   -10.959464    -10.441139       0.067934       0.000454
 2827   0.016294   -10.974554    -10.455497       0.067934       0.000454
 2828   0.016289   -10.991605    -10.472627       0.067934       0.000454
 2829   0.016285   -11.003247    -10.482446       0.067934       0.000454
 2830   0.016280   -11.023276    -10.504694       0.067934       0.000454
 2831   0.016274   -11.038440    -10.519087       0.067934       0.000454
 2832   0.016270   -11.052963    -10.532611       0.067934       0.000454
 2833   0.016264   -11.069134    -10.549398       0.067934       0.000454
 2834   0.016259   -11.087905    -10.569351       0.067934       0.000454
 2835   0.016254   -11.100381    -10.580023       0.067934       0.000454
 2836   0.016250   -11.116420    -10.596452       0.067934       0.000454
 2837   0.016247   -11.132079    -10.612514       0.067934       0.000454
 2838   0.016242   -11.148492    -10.629243       0.067934       0.000454
 2839   0.016236   -11.164174    -10.644962       0.067934       0.000454
 2840   0.016232   -11.173808    -10.652210       0.067934       0.000454
 2841   0.016227   -11.188797    -10.668261       0.067934       0.000454
 2842   0.016221   -11.213921    -10.698414       0.067934       0.000454

---------------------- Local Time Stepping Summary ----------------------
MG level: 0 -> Min. DT: 0.000497835. Max. DT: 3.62878. CFL: 10.
MG level: 1 -> Min. DT: 0.000800011. Max. DT: 5.71123. CFL: 8.35917.
MG level: 2 -> Min. DT: 0.00155943. Max. DT: 8.31088. CFL: 7.39444.
-------------------------------------------------------------------------

----------------------- Residual Evolution Summary ----------------------
log10[Maximum residual]: -10.034.
Maximum residual point 378, located at (0.394393, 0.0615181).
-------------------------------------------------------------------------

 Iter    Time(s)     Res[Rho]     Res[RhoE]      CL(Total)      CD(Total)
 2843   0.016219   -11.221103    -10.700665       0.067934       0.000454
 2844   0.016216   -11.221196    -10.695635       0.067934       0.000454
 2845   0.016212   -11.252852    -10.737932       0.067934       0.000454
 2846   0.016208   -11.269887    -10.754517       0.067934       0.000454
 2847   0.016206   -11.257140    -10.730546       0.067934       0.000454
 2848   0.016202   -11.292996    -10.779737       0.067934       0.000454
 2849   0.016200   -11.285999    -10.764925       0.067934       0.000454
 2850   0.016195   -11.289526    -10.766278       0.067934       0.000454
 2851   0.016192   -11.326048    -10.814643       0.067934       0.000454
 2852   0.016187   -11.329845    -10.812973       0.067934       0.000454
 2853   0.016182   -11.338175    -10.818323       0.067934       0.000454
 2854   0.016184   -11.369591    -10.856677       0.067934       0.000454
 2855   0.016180   -11.389735    -10.876726       0.067934       0.000454
 2856   0.016181   -11.375170    -10.849736       0.067934       0.000454
 2857   0.016177   -11.407473    -10.891712       0.067934       0.000454
 2858   0.016174   -11.430669    -10.919606       0.067934       0.000454
 2859   0.016169   -11.403879    -10.876883       0.067934       0.000454
 2860   0.016165   -11.444490    -10.931033       0.067934       0.000454
 2861   0.016159   -11.467753    -10.958584       0.067934       0.000454
 2862   0.016153   -11.454368    -10.932624       0.067934       0.000454
 2863   0.016149   -11.502820    -10.996735       0.067934       0.000454
 2864   0.016143   -11.518226    -11.008986       0.067934       0.000454
 2865   0.016139   -11.524210    -11.008315       0.067934       0.000454
 2866   0.016136   -11.561485    -11.055589       0.067934       0.000454
 2867   0.016133   -11.570100    -11.058576       0.067934       0.000454
 2868   0.016128   -11.585790    -11.072377       0.067934       0.000454
 2869   0.016123   -11.610447    -11.101326       0.067934       0.000454
 2870   0.016142   -11.622325    -11.109542       0.067934       0.000454
 2871   0.016137   -11.633399    -11.118032       0.067934       0.000454
 2872   0.016134   -11.655206    -11.143605       0.067934       0.000454
 2873   0.016131   -11.681854    -11.174385       0.067934       0.000454
 2874   0.016127   -11.689653    -11.175863       0.067934       0.000454
 2875   0.016123   -11.719122    -11.211918       0.067934       0.000454
 2876   0.016120   -11.741811    -11.235125       0.067934       0.000454
 2877   0.016117   -11.760414    -11.251371       0.067934       0.000454
 2878   0.016113   -11.774208    -11.262710       0.067934       0.000454
 2879   0.016108   -11.789155    -11.277169       0.067934       0.000454
 2880   0.016103   -11.809250    -11.298695       0.067934       0.000454

-------------------------- File Output Summary --------------------------
Writing comma-separated values (CSV) surface files.
Merging coordinates in the Master node.
Merging solution in the Master node.
Writing SU2 native restart file.
Writing the forces breakdown file.
-------------------------------------------------------------------------

History file, closed.

------------------------- Solver Postprocessing -------------------------
Deleted CNumerics container.
Deleted CIntegration container.
Deleted CSolver container.
Deleted CIteration container.
Deleted CInterpolator container.
Deleted CTransfer container.
Deleted CGeometry container.
Deleted CFreeFormDefBox class.
Deleted CSurfaceMovement class.
Deleted CVolumetricMovement class.
Deleted CConfig container.
Deleted COutput class.
-------------------------------------------------------------------------

Completed in 6.463351 seconds on 8 cores.

------------------------- Exit Success (SU2_CFD) ------------------------


-------------------------------------------------------------------------
|    ___ _   _ ___                                                      |
|   / __| | | |_  )   Release 5.0.0  "Raven"                            |
|   \__ \ |_| |/ /                                                      |
|   |___/\___//___|   Suite (Solution Exporting Code)                   |
|                                                                       |
-------------------------------------------------------------------------
| SU2 Original Developers: Dr. Francisco D. Palacios.                   |
|                          Dr. Thomas D. Economon.                      |
-------------------------------------------------------------------------
| SU2 Developers:                                                       |
| - Prof. Juan J. Alonso's group at Stanford University.                |
| - Prof. Piero Colonna's group at Delft University of Technology.      |
| - Prof. Nicolas R. Gauger's group at Kaiserslautern U. of Technology. |
| - Prof. Alberto Guardone's group at Polytechnic University of Milan.  |
| - Prof. Rafael Palacios' group at Imperial College London.            |
| - Prof. Edwin van der Weide's group at the University of Twente.      |
| - Prof. Vincent Terrapon's group at the University of Liege.          |
-------------------------------------------------------------------------
| Copyright (C) 2012-2017 SU2, the open-source CFD code.                |
|                                                                       |
| SU2 is free software; you can redistribute it and/or                  |
| modify it under the terms of the GNU Lesser General Public            |
| License as published by the Free Software Foundation; either          |
| version 2.1 of the License, or (at your option) any later version.    |
|                                                                       |
| SU2 is distributed in the hope that it will be useful,                |
| but WITHOUT ANY WARRANTY; without even the implied warranty of        |
| MERCHANTABILITY or FITNESS FOR A PARTICULAR PURPOSE. See the GNU      |
| Lesser General Public License for more details.                       |
|                                                                       |
| You should have received a copy of the GNU Lesser General Public      |
| License along with SU2. If not, see <http://www.gnu.org/licenses/>.   |
-------------------------------------------------------------------------

------------------------ Physical Case Definition -----------------------
Input mesh file name: mesh_NACA0012_inv_deform.su2

-------------------------- Output Information ---------------------------
The output file format is Tecplot ASCII (.dat).
Flow variables file name: flow.

------------------- Config File Boundary Information --------------------
Euler wall boundary marker(s): airfoil.
Far-field boundary marker(s): farfield.

---------------------- Read Grid File Information -----------------------
Two dimensional problem.
5233 points before parallel partitioning.
Performing linear partitioning of the grid nodes.
10216 interior elements before parallel partitioning.
Calling the partitioning functions.
Building the graph adjacency structure.
Distributing elements across all ranks.
2 surface markers.
200 boundary elements in index 0 (Marker = airfoil).
50 boundary elements in index 1 (Marker = farfield).
Calling ParMETIS...
Finished partitioning using ParMETIS (547 edge cuts).
Communicating partition data and creating halo layers.
10763 interior elements including halo cells. 
10763 triangles.
5796 vertices including ghost points. 
Establishing MPI communication patterns.
Identify vertices.

------------------------- Solution Postprocessing -----------------------
Reading and storing the solution from restart_flow.dat.
Merging connectivities in the Master node.
Merging solution in the Master node.
Writing Tecplot ASCII file (volume grid).
Writing Tecplot ASCII file (surface grid).

Completed in 0.104402 seconds on 8 cores.

------------------------- Exit Success (SU2_SOL) ------------------------

