
-------------------------------------------------------------------------
|    ___ _   _ ___                                                      |
|   / __| | | |_  )   Release 5.0.0  "Raven"                            |
|   \__ \ |_| |/ /                                                      |
|   |___/\___//___|   Suite (Computational Fluid Dynamics Code)         |
|                                                                       |
-------------------------------------------------------------------------
| SU2 Original Developers: Dr. Francisco D. Palacios.                   |
|                          Dr. Thomas D. Economon.                      |
-------------------------------------------------------------------------
| SU2 Developers:                                                       |
| - Prof. Juan J. Alonso's group at Stanford University.                |
| - Prof. Piero Colonna's group at Delft University of Technology.      |
| - Prof. Nicolas R. Gauger's group at Kaiserslautern U. of Technology. |
| - Prof. Alberto Guardone's group at Polytechnic University of Milan.  |
| - Prof. Rafael Palacios' group at Imperial College London.            |
| - Prof. Edwin van der Weide's group at the University of Twente.      |
| - Prof. Vincent Terrapon's group at the University of Liege.          |
-------------------------------------------------------------------------
| Copyright (C) 2012-2017 SU2, the open-source CFD code.                |
|                                                                       |
| SU2 is free software; you can redistribute it and/or                  |
| modify it under the terms of the GNU Lesser General Public            |
| License as published by the Free Software Foundation; either          |
| version 2.1 of the License, or (at your option) any later version.    |
|                                                                       |
| SU2 is distributed in the hope that it will be useful,                |
| but WITHOUT ANY WARRANTY; without even the implied warranty of        |
| MERCHANTABILITY or FITNESS FOR A PARTICULAR PURPOSE. See the GNU      |
| Lesser General Public License for more details.                       |
|                                                                       |
| You should have received a copy of the GNU Lesser General Public      |
| License along with SU2. If not, see <http://www.gnu.org/licenses/>.   |
-------------------------------------------------------------------------

------------------------ Physical Case Definition -----------------------
Compressible Euler equations.
Mach number: 0.8.
Angle of attack (AoA): 1.25 deg, and angle of sideslip (AoS): 0 deg.
Read flow solution from: solution_flow.dat.
Non-Dimensional simulation (P=1.0, Rho=1.0, T=1.0 at the farfield).
The reference length/area (force coefficient) is 1.
The reference length (moment computation) is 1.
Reference origin (moment computation) is (0.25, 0, 0).
Surface(s) where the force coefficients are evaluated: airfoil.
Surface(s) plotted in the output file: airfoil.
Surface(s) affected by the design variables: airfoil.
Input mesh file name: mesh_NACA0012_inv_deform.su2

---------------------- Space Numerical Integration ----------------------
Jameson-Schmidt-Turkel scheme for the flow inviscid terms.
JST viscous coefficients (1st, 2nd & 4th): 0.15, 0.5, 0.02.
The method includes a grid stretching correction (p = 0.3).
Second order integration.
Gradient computation using Green-Gauss theorem.

---------------------- Time Numerical Integration -----------------------
Local time stepping (steady state simulation).
Euler implicit method for the flow equations.
V Multigrid Cycle, with 2 multigrid levels.
Damping factor for the residual restriction: 1.
Damping factor for the correction prolongation: 1.
No CFL adaptation.
Multigrid Level:                       0     1     2
Courant-Friedrichs-Lewy number:       10
MG PreSmooth coefficients:             1     2     3
MG PostSmooth coefficients:            0     0     0
MG CorrecSmooth coefficients:          0     0     0

------------------------- Convergence Criteria --------------------------
Maximum number of iterations: 1000.
Reduce the density residual 6 orders of magnitude.
The minimum bound for the density residual is 10^(-13).
Start convergence criteria at iteration 10.

-------------------------- Output Information ---------------------------
Writing a flow solution every 250 iterations.
Writing the convergence history every 1 iterations.
The output file format is Tecplot ASCII (.dat).
Convergence history file name: history_direct.
Forces breakdown file name: forces_breakdown.dat.
Surface flow coefficients file name: surface_flow.
Flow variables file name: flow.
Restart flow file name: restart_flow.dat.

------------------- Config File Boundary Information --------------------
Euler wall boundary marker(s): airfoil.
Far-field boundary marker(s): farfield.

---------------------- Read Grid File Information -----------------------
Two dimensional problem.
5233 points before parallel partitioning.
Performing linear partitioning of the grid nodes.
10216 interior elements before parallel partitioning.
Calling the partitioning functions.
Building the graph adjacency structure.
Distributing elements across all ranks.
2 surface markers.
200 boundary elements in index 0 (Marker = airfoil).
50 boundary elements in index 1 (Marker = farfield).
Calling ParMETIS...
Finished partitioning using ParMETIS (547 edge cuts).
Communicating partition data and creating halo layers.
10763 interior elements including halo cells. 
10763 triangles.
5796 vertices including ghost points. 
Establishing MPI communication patterns.

------------------------- Geometry Preprocessing ------------------------
Setting point connectivity.
Renumbering points (Reverse Cuthill McKee Ordering).
Recomputing point connectivity.
Setting element connectivity.
Checking the numerical grid orientation.
Identifying edges and vertices.
Computing centers of gravity.
Setting the control volume structure.
Area of the computational grid: 1.3e+03.
Searching for the closest normal neighbors to the surfaces.
Compute the surface curvature.
Max K: 7.84e+03. Mean K: 35.8. Standard deviation K: 494.
Checking for periodicity.
Setting the multigrid structure.
MG level: 0 -> CVs: 5796. Agglomeration rate 1/1.00. CFL 10.
MG level: 1 -> CVs: 1800. Agglomeration rate 1/3.22. CFL 8.36.
MG level: 2 -> CVs: 626. Agglomeration rate 1/2.88. CFL 7.39.
Computing wall distances.
Wetted area = 2.03 m.
Area projection in the x-plane = 0.105 m, y-plane = 1 m.

------------------------- Driver information --------------------------
A Fluid driver has been instantiated.

------------------------ Iteration Preprocessing ------------------------
Zone 1: Euler/Navier-Stokes/RANS flow iteration.

------------------------- Solver Preprocessing --------------------------
Inviscid flow: Computing density based on free-stream
temperature and pressure using the ideal gas law.
Force coefficients computed using free-stream values.
-- Input conditions:
Fluid Model: STANDARD_AIR 
Specific gas constant: 287.058 N.m/kg.K.
Specific gas constant (non-dim): 1
Specific Heat Ratio: 1.4
Free-stream static pressure: 101325 Pa.
Free-stream total pressure: 154454 Pa.
Free-stream temperature: 288.15 K.
Free-stream density: 1.22498 kg/m^3.
Free-stream velocity: (272.173, 5.93883) m/s. Magnitude: 272.238 m/s (529.186 KTS).
Free-stream total energy per unit mass: 243846 m^2/s^2.
-- Reference values:
Reference specific gas constant: 287.058 N.m/kg.K.
Reference pressure: 101325 Pa.
Reference temperature: 288.15 K.
Reference density: 1.22498 kg/m^3.
Reference velocity: 287.603 m/s.
Reference energy per unit mass: 82715.8 m^2/s^2.
-- Resulting non-dimensional state:
Mach number (non-dim): 0.8
Specific gas constant (non-dim): 1
Free-stream temperature (non-dim): 1
Free-stream pressure (non-dim): 1
Free-stream density (non-dim): 1
Free-stream velocity (non-dim): (0.946348, 0.0206494). Magnitude: 0.946573
Free-stream total energy per unit mass (non-dim): 2.948

Initialize Jacobian structure (Euler). MG level: 0.
Initialize Jacobian structure (Euler). MG level: 1.
Initialize Jacobian structure (Euler). MG level: 2.

----------------- Integration and Numerics Preprocessing ----------------
Integration Preprocessing.
Numerics Preprocessing.

------------------------------ Begin Solver -----------------------------

---------------------- Local Time Stepping Summary ----------------------
MG level: 0 -> Min. DT: 0.00049678. Max. DT: 3.63156. CFL: 10.
MG level: 1 -> Min. DT: 0.000797919. Max. DT: 5.71234. CFL: 8.35917.
MG level: 2 -> Min. DT: 0.00156848. Max. DT: 8.3133. CFL: 7.39444.
-------------------------------------------------------------------------

----------------------- Residual Evolution Summary ----------------------
log10[Maximum residual]: -3.02623.
Maximum residual point 145, located at (0.43311, 0.0411733).
-------------------------------------------------------------------------

 Iter    Time(s)     Res[Rho]     Res[RhoE]      CL(Total)      CD(Total)
  884   0.015562    -4.121307     -3.524926       0.230701      -0.004986
  885   0.017280    -4.166048     -3.566913       0.207677      -0.003793
  886   0.017331    -4.225036     -3.632097       0.198075      -0.004011
  887   0.017171    -4.234413     -3.637227       0.187675      -0.002963
  888   0.016796    -4.179178     -3.583383       0.174556      -0.001873
  889   0.016601    -4.111285     -3.516200       0.162071      -0.001180
  890   0.016456    -4.053308     -3.457910       0.149774      -0.000602
  891   0.016309    -4.007231     -3.411270       0.138106       0.000001
  892   0.016428    -3.970227     -3.373765       0.127322       0.000585
  893   0.016257    -3.940006     -3.343238       0.117479       0.001116
  894   0.016103    -3.915392     -3.318463       0.108608       0.001597
  895   0.016016    -3.895376     -3.298303       0.100656       0.002031
  896   0.015909    -3.879137     -3.281827       0.093551       0.002418
  897   0.016439    -3.866115     -3.268418       0.087231       0.002760
  898   0.016331    -3.855921     -3.257635       0.081619       0.003061
  899   0.016261    -3.848297     -3.249162       0.076630       0.003324
  900   0.016187    -3.842920     -3.242657       0.072158       0.003549
  901   0.016134    -3.839792     -3.238146       0.068100       0.003733
  902   0.016095    -3.839845     -3.236724       0.064357       0.003869
  903   0.016036    -3.845561     -3.241247       0.060804       0.003937
  904   0.015999    -3.864490     -3.260264       0.057341       0.003883
  905   0.015979    -3.922172     -3.323350       0.054434       0.003995
  906   0.015947    -4.093629     -3.528514       0.048011       0.004229
  907   0.015900    -4.090621     -3.520871       0.043317       0.004509
  908   0.015848    -4.101897     -3.530335       0.039284       0.004207
  909   0.015803    -4.196519     -3.645737       0.034086       0.004390
  910   0.015843    -4.212128     -3.658944       0.030538       0.004782
  911   0.015797    -4.204851     -3.643224       0.026846       0.004788
  912   0.015825    -4.220587     -3.654628       0.023307       0.004680
  913   0.015824    -4.234464     -3.665221       0.020594       0.004741
  914   0.015815    -4.230634     -3.655388       0.018038       0.004765
  915   0.015815    -4.227970     -3.647312       0.015884       0.004720
  916   0.015795    -4.224907     -3.640496       0.013992       0.004641
  917   0.015765    -4.223940     -3.636936       0.012421       0.004557
  918   0.015733    -4.224857     -3.636300       0.011045       0.004462
  919   0.015748    -4.226314     -3.636387       0.009921       0.004373
  920   0.015714    -4.228776     -3.637957       0.008838       0.004267
  921   0.015755    -4.232164     -3.640270       0.008061       0.004188
  922   0.015993    -4.237549     -3.645339       0.007057       0.004067
  923   0.016362    -4.244650     -3.651491       0.006642       0.004023

---------------------- Local Time Stepping Summary ----------------------
MG level: 0 -> Min. DT: 0.000497692. Max. DT: 3.63164. CFL: 10.
MG level: 1 -> Min. DT: 0.000799597. Max. DT: 5.71423. CFL: 8.35917.
MG level: 2 -> Min. DT: 0.00156819. Max. DT: 8.31539. CFL: 7.39444.
-------------------------------------------------------------------------

----------------------- Residual Evolution Summary ----------------------
log10[Maximum residual]: -3.23176.
Maximum residual point 1861, located at (0.283981, 0.25854).
-------------------------------------------------------------------------

 Iter    Time(s)     Res[Rho]     Res[RhoE]      CL(Total)      CD(Total)
  924   0.016501    -4.256797     -3.664532       0.005409       0.003846
  925   0.016544    -4.277769     -3.685988       0.005476       0.003887
  926   0.016542    -4.318332     -3.732871       0.004072       0.003691
  927   0.016655    -4.358873     -3.777365       0.003582       0.003664
  928   0.016853    -4.396725     -3.820333       0.002750       0.003530
  929   0.016904    -4.449375     -3.879309       0.002417       0.003521
  930   0.016880    -4.485730     -3.919813       0.001932       0.003411
  931   0.016834    -4.531557     -3.970445       0.001746       0.003382
  932   0.016798    -4.573284     -4.018123       0.001624       0.003309
  933   0.016771    -4.608646     -4.056666       0.001692       0.003281
  934   0.016740    -4.658074     -4.114216       0.001874       0.003237
  935   0.016711    -4.691729     -4.150884       0.002266       0.003221
  936   0.016683    -4.748857     -4.220224       0.002725       0.003196
  937   0.016641    -4.780330     -4.252260       0.003407       0.003181
  938   0.016612    -4.788294     -4.253898       0.004155       0.003169
  939   0.016602    -4.797846     -4.257907       0.004897       0.003149
  940   0.016568    -4.809870     -4.267486       0.005627       0.003121
  941   0.016535    -4.817906     -4.272117       0.006343       0.003091
  942   0.016512    -4.825482     -4.276758       0.007006       0.003066
  943   0.016485    -4.835354     -4.284864       0.007611       0.003050
  944   0.016460    -4.853455     -4.304159       0.008153       0.003040
  945   0.016429    -4.876942     -4.330624       0.008623       0.003034
  946   0.016412    -4.898938     -4.354787       0.009018       0.003034
  947   0.016429    -4.919997     -4.377251       0.009347       0.003039
  948   0.016422    -4.938069     -4.395518       0.009613       0.003047
  949   0.016411    -4.951624     -4.407749       0.009835       0.003058
  950   0.016391    -4.966811     -4.422112       0.010014       0.003068
  951   0.016379    -4.982125     -4.436546       0.010147       0.003075
  952   0.016359    -4.996750     -4.449731       0.010239       0.003080
  953   0.016333    -5.011118     -4.462286       0.010294       0.003083
  954   0.016315    -5.026125     -4.475494       0.010321       0.003083
  955   0.016304    -5.043466     -4.491600       0.010326       0.003082
  956   0.016280    -5.063346     -4.510907       0.010314       0.003080
  957   0.016262    -5.085235     -4.532743       0.010290       0.003079
  958   0.016248    -5.108127     -4.555802       0.010257       0.003079
  959   0.016230    -5.131209     -4.579091       0.010217       0.003078
  960   0.016209    -5.153959     -4.601953       0.010173       0.003078
  961   0.016193    -5.175624     -4.623540       0.010128       0.003078
  962   0.016195    -5.195602     -4.643170       0.010084       0.003076
  963   0.016183    -5.213903     -4.660924       0.010044       0.003074

---------------------- Local Time Stepping Summary ----------------------
MG level: 0 -> Min. DT: 0.000497962. Max. DT: 3.63163. CFL: 10.
MG level: 1 -> Min. DT: 0.000799513. Max. DT: 5.7142. CFL: 8.35917.
MG level: 2 -> Min. DT: 0.00156391. Max. DT: 8.31537. CFL: 7.39444.
-------------------------------------------------------------------------

----------------------- Residual Evolution Summary ----------------------
log10[Maximum residual]: -4.17367.
Maximum residual point 810, located at (0.707463, 0.0798492).
-------------------------------------------------------------------------

 Iter    Time(s)     Res[Rho]     Res[RhoE]      CL(Total)      CD(Total)
  964   0.016164    -5.230913     -4.677342       0.010009       0.003070
  965   0.016167    -5.247084     -4.693012       0.009980       0.003065
  966   0.016155    -5.262743     -4.708323       0.009956       0.003058
  967   0.016135    -5.278238     -4.723611       0.009936       0.003050
  968   0.016123    -5.293670     -4.738994       0.009921       0.003041
  969   0.016109    -5.308981     -4.754360       0.009908       0.003031
  970   0.016096    -5.324208     -4.769718       0.009898       0.003020
  971   0.016083    -5.339388     -4.785076       0.009889       0.003009
  972   0.016069    -5.354502     -4.800383       0.009881       0.002998
  973   0.016057    -5.369521     -4.815587       0.009873       0.002987
  974   0.016041    -5.384457     -4.830701       0.009864       0.002977
  975   0.016033    -5.399396     -4.845837       0.009854       0.002967
  976   0.016020    -5.414371     -4.861057       0.009842       0.002959
  977   0.016004    -5.429348     -4.876345       0.009828       0.002952
  978   0.015990    -5.444608     -4.892043       0.009812       0.002946
  979   0.015976    -5.460333     -4.908379       0.009794       0.002942
  980   0.015961    -5.476796     -4.925681       0.009773       0.002938
  981   0.015957    -5.494252     -4.944235       0.009750       0.002936
  982   0.015943    -5.513041     -4.964503       0.009725       0.002936
  983   0.015932    -5.533644     -4.987087       0.009697       0.002936
  984   0.016012    -5.556318     -5.012325       0.009666       0.002938
  985   0.016102    -5.581890     -5.041279       0.009633       0.002941
  986   0.016208    -5.610864     -5.074583       0.009597       0.002944
  987   0.016219    -5.643810     -5.112987       0.009559       0.002949
  988   0.016226    -5.680934     -5.156700       0.009517       0.002954
  989   0.016221    -5.721618     -5.204719       0.009472       0.002959
  990   0.016229    -5.760002     -5.248358       0.009425       0.002964
  991   0.016258    -5.786414     -5.273737       0.009380       0.002970
  992   0.016280    -5.813214     -5.299874       0.009333       0.002974
  993   0.016269    -5.841216     -5.329067       0.009285       0.002978
  994   0.016256    -5.861709     -5.346711       0.009239       0.002984
  995   0.016251    -5.912279     -5.409232       0.009199       0.002986
  996   0.016234    -5.928104     -5.418398       0.009157       0.002987
  997   0.016233    -5.952292     -5.439301       0.009117       0.002987
  998   0.016228    -5.962900     -5.444735       0.009088       0.002988
  999   0.016212    -5.982628     -5.463050       0.009057       0.002987
 1000   0.016206    -5.971431     -5.440769       0.009036       0.002986
 1001   0.016194    -6.004916     -5.481774       0.009009       0.002983
 1002   0.016179    -6.004447     -5.475765       0.008992       0.002980
 1003   0.016168    -6.048814     -5.531348       0.008967       0.002976

---------------------- Local Time Stepping Summary ----------------------
MG level: 0 -> Min. DT: 0.000497828. Max. DT: 3.63163. CFL: 10.
MG level: 1 -> Min. DT: 0.00079929. Max. DT: 5.7142. CFL: 8.35917.
MG level: 2 -> Min. DT: 0.0015652. Max. DT: 8.31538. CFL: 7.39444.
-------------------------------------------------------------------------

----------------------- Residual Evolution Summary ----------------------
log10[Maximum residual]: -4.94818.
Maximum residual point 615, located at (0.653494, 0.0688527).
-------------------------------------------------------------------------

 Iter    Time(s)     Res[Rho]     Res[RhoE]      CL(Total)      CD(Total)
 1004   0.016151    -6.061721     -5.541211       0.008947       0.002971
 1005   0.016141    -6.101855     -5.588128       0.008925       0.002966
 1006   0.016132    -6.115598     -5.596390       0.008909       0.002961
 1007   0.016122    -6.127653     -5.603717       0.008896       0.002956
 1008   0.016110    -6.129459     -5.599355       0.008886       0.002952
 1009   0.016100    -6.132745     -5.599327       0.008876       0.002948
 1010   0.016099    -6.133521     -5.596996       0.008868       0.002944
 1011   0.016091    -6.136747     -5.598726       0.008860       0.002941
 1012   0.016081    -6.143238     -5.605179       0.008852       0.002939
 1013   0.016073    -6.153123     -5.616128       0.008843       0.002937
 1014   0.016061    -6.165979     -5.630776       0.008833       0.002936
 1015   0.016053    -6.181929     -5.649217       0.008823       0.002935
 1016   0.016043    -6.201061     -5.671519       0.008812       0.002935
 1017   0.016029    -6.223406     -5.697603       0.008800       0.002935
 1018   0.016020    -6.248636     -5.726863       0.008787       0.002935
 1019   0.016011    -6.276434     -5.758765       0.008772       0.002935
 1020   0.016007    -6.306457     -5.792798       0.008758       0.002936
 1021   0.015999    -6.338364     -5.828486       0.008742       0.002937
 1022   0.015991    -6.371589     -5.865018       0.008725       0.002938
 1023   0.015993    -6.404458     -5.900019       0.008708       0.002938
 1024   0.015986    -6.431781     -5.926303       0.008691       0.002939
 1025   0.015992    -6.444924     -5.933039       0.008674       0.002941
 1026   0.015991    -6.447687     -5.927524       0.008657       0.002942
 1027   0.015983    -6.448104     -5.921010       0.008640       0.002943
 1028   0.015973    -6.447858     -5.915344       0.008625       0.002943
 1029   0.015970    -6.447485     -5.910626       0.008610       0.002944
 1030   0.015965    -6.449484     -5.909737       0.008597       0.002945
 1031   0.015958    -6.452587     -5.910558       0.008584       0.002945
 1032   0.015951    -6.458046     -5.914376       0.008573       0.002946
 1033   0.015941    -6.462750     -5.917334       0.008562       0.002946
 1034   0.015934    -6.469995     -5.923321       0.008553       0.002946
 1035   0.015929    -6.476029     -5.928296       0.008543       0.002946
 1036   0.015923    -6.487499     -5.939503       0.008536       0.002946
 1037   0.015916    -6.498529     -5.951342       0.008526       0.002945
 1038   0.015906    -6.519651     -5.974541       0.008521       0.002945
 1039   0.015901    -6.539144     -5.997674       0.008511       0.002945
 1040   0.015902    -6.569272     -6.032163       0.008508       0.002945
 1041   0.015894    -6.592480     -6.059415       0.008500       0.002944
 1042   0.015891    -6.622185     -6.092439       0.008496       0.002944
 1043   0.015885    -6.645349     -6.118307       0.008489       0.002944

---------------------- Local Time Stepping Summary ----------------------
MG level: 0 -> Min. DT: 0.000497919. Max. DT: 3.63163. CFL: 10.
MG level: 1 -> Min. DT: 0.000799505. Max. DT: 5.71421. CFL: 8.35917.
MG level: 2 -> Min. DT: 0.00156601. Max. DT: 8.31538. CFL: 7.39444.
-------------------------------------------------------------------------

----------------------- Residual Evolution Summary ----------------------
log10[Maximum residual]: -5.54797.
Maximum residual point 441, located at (0.629922, -0.0630346).
-------------------------------------------------------------------------

 Iter    Time(s)     Res[Rho]     Res[RhoE]      CL(Total)      CD(Total)
 1044   0.015877    -6.671385     -6.145647       0.008485       0.002944
 1045   0.015869    -6.701359     -6.180164       0.008479       0.002943
 1046   0.015865    -6.723122     -6.200993       0.008475       0.002943
 1047   0.015883    -6.767656     -6.255081       0.008469       0.002943
 1048   0.015940    -6.774562     -6.254731       0.008465       0.002942
 1049   0.015992    -6.825716     -6.318471       0.008460       0.002942
 1050   0.016027    -6.826178     -6.308602       0.008455       0.002942
 1051   0.016038    -6.862725     -6.352149       0.008450       0.002942
 1052   0.016034    -6.879551     -6.367013       0.008445       0.002942
 1053   0.016029    -6.904167     -6.393219       0.008439       0.002942
 1054   0.016040    -6.923323     -6.412548       0.008433       0.002942
 1055   0.016060    -6.949576     -6.442227       0.008427       0.002941
 1056   0.016061    -6.968900     -6.461359       0.008420       0.002941
 1057   0.016055    -6.992900     -6.487378       0.008413       0.002941
 1058   0.016051    -7.009847     -6.502968       0.008405       0.002941
 1059   0.016044    -7.029699     -6.523193       0.008397       0.002941
 1060   0.016049    -7.045648     -6.537773       0.008389       0.002942
 1061   0.016044    -7.062419     -6.553589       0.008380       0.002942
 1062   0.016044    -7.075672     -6.564374       0.008372       0.002942
 1063   0.016036    -7.088330     -6.574583       0.008364       0.002942
 1064   0.016031    -7.100953     -6.585134       0.008355       0.002942
 1065   0.016070    -7.113245     -6.595311       0.008347       0.002942
 1066   0.016077    -7.123574     -6.602794       0.008339       0.002942
 1067   0.016072    -7.132448     -6.608495       0.008331       0.002942
 1068   0.016068    -7.141088     -6.614273       0.008324       0.002941
 1069   0.016059    -7.149588     -6.620216       0.008317       0.002941
 1070   0.016053    -7.157242     -6.625294       0.008310       0.002941
 1071   0.016047    -7.164038     -6.629501       0.008303       0.002941
 1072   0.016042    -7.170364     -6.633413       0.008297       0.002941
 1073   0.016041    -7.176322     -6.637185       0.008291       0.002941
 1074   0.016034    -7.181777     -6.640627       0.008285       0.002941
 1075   0.016028    -7.186674     -6.643649       0.008279       0.002941
 1076   0.016024    -7.191027     -6.646258       0.008274       0.002941
 1077   0.016022    -7.194844     -6.648464       0.008269       0.002941
 1078   0.016022    -7.198169     -6.650307       0.008264       0.002941
 1079   0.016017    -7.201067     -6.651856       0.008260       0.002941
 1080   0.016011    -7.203614     -6.653187       0.008255       0.002941
 1081   0.016005    -7.205887     -6.654377       0.008251       0.002941
 1082   0.015999    -7.207962     -6.655500       0.008248       0.002941
 1083   0.015992    -7.209915     -6.656626       0.008244       0.002941

---------------------- Local Time Stepping Summary ----------------------
MG level: 0 -> Min. DT: 0.000497902. Max. DT: 3.63163. CFL: 10.
MG level: 1 -> Min. DT: 0.000799486. Max. DT: 5.71421. CFL: 8.35917.
MG level: 2 -> Min. DT: 0.0015662. Max. DT: 8.31538. CFL: 7.39444.
-------------------------------------------------------------------------

----------------------- Residual Evolution Summary ----------------------
log10[Maximum residual]: -6.16123.
Maximum residual point 731, located at (0.442591, -0.108098).
-------------------------------------------------------------------------

 Iter    Time(s)     Res[Rho]     Res[RhoE]      CL(Total)      CD(Total)
 1084   0.015986    -7.211811     -6.657820       0.008240       0.002941
 1085   0.015981    -7.213710     -6.659136       0.008237       0.002941
 1086   0.015977    -7.215676     -6.660631       0.008234       0.002941
 1087   0.015972    -7.217757     -6.662350       0.008231       0.002941
 1088   0.015971    -7.220001     -6.664333       0.008228       0.002941
 1089   0.015965    -7.222454     -6.666623       0.008226       0.002941
 1090   0.015961    -7.225159     -6.669262       0.008223       0.002941
 1091   0.015958    -7.228164     -6.672296       0.008221       0.002941
 1092   0.015951    -7.231514     -6.675772       0.008218       0.002941
 1093   0.015946    -7.235255     -6.679735       0.008216       0.002941
 1094   0.015942    -7.239430     -6.684234       0.008214       0.002941
 1095   0.015938    -7.244087     -6.689317       0.008212       0.002941
 1096   0.015931    -7.249274     -6.695038       0.008210       0.002941
 1097   0.015927    -7.255038     -6.701451       0.008208       0.002941
 1098   0.015923    -7.261429     -6.708608       0.008206       0.002941
 1099   0.015927    -7.268498     -6.716566       0.008205       0.002941
 1100   0.015925    -7.276293     -6.725379       0.008203       0.002941
 1101   0.015922    -7.284863     -6.735102       0.008202       0.002941
 1102   0.015917    -7.294262     -6.745792       0.008200       0.002941
 1103   0.015910    -7.304544     -6.757506       0.008199       0.002941
 1104   0.015907    -7.315761     -6.770303       0.008197       0.002941
 1105   0.015901    -7.327970     -6.784238       0.008196       0.002941
 1106   0.015899    -7.341220     -6.799363       0.008195       0.002941
 1107   0.015895    -7.355561     -6.815723       0.008194       0.002941
 1108   0.016006    -7.371033     -6.833352       0.008193       0.002941
 1109   0.016066    -7.387664     -6.852268       0.008192       0.002941
 1110   0.016120    -7.405464     -6.872463       0.008191       0.002941
 1111   0.016206    -7.424421     -6.893904       0.008190       0.002941
 1112   0.016214    -7.444488     -6.916506       0.008189       0.002941
 1113   0.016208    -7.465561     -6.940118       0.008188       0.002941
 1114   0.016230    -7.487470     -6.964495       0.008187       0.002941
 1115   0.016238    -7.509964     -6.989297       0.008186       0.002941
 1116   0.016237    -7.532727     -7.014104       0.008185       0.002941
 1117   0.016231    -7.555420     -7.038497       0.008184       0.002941
 1118   0.016227    -7.577772     -7.062174       0.008184       0.002941
 1119   0.016222    -7.599657     -7.085051       0.008183       0.002941
 1120   0.016220    -7.621111     -7.107256       0.008182       0.002941
 1121   0.016213    -7.642272     -7.129025       0.008181       0.002941
 1122   0.016207    -7.663305     -7.150581       0.008181       0.002941
 1123   0.016200    -7.684342     -7.172068       0.008180       0.002941

---------------------- Local Time Stepping Summary ----------------------
MG level: 0 -> Min. DT: 0.000497895. Max. DT: 3.63163. CFL: 10.
MG level: 1 -> Min. DT: 0.00079948. Max. DT: 5.71421. CFL: 8.35917.
MG level: 2 -> Min. DT: 0.00156623. Max. DT: 8.31539. CFL: 7.39444.
-------------------------------------------------------------------------

----------------------- Residual Evolution Summary ----------------------
log10[Maximum residual]: -6.41056.
Maximum residual point 544, located at (0.46584, -0.0895296).
-------------------------------------------------------------------------

 Iter    Time(s)     Res[Rho]     Res[RhoE]      CL(Total)      CD(Total)
 1124   0.016193    -7.705462     -7.193553       0.008179       0.002941
 1125   0.016191    -7.726719     -7.215073       0.008179       0.002941
 1126   0.016185    -7.748149     -7.236657       0.008178       0.002941
 1127   0.016179    -7.769832     -7.258422       0.008177       0.002941
 1128   0.016173    -7.791905     -7.280565       0.008177       0.002941
 1129   0.016168    -7.814550     -7.303332       0.008176       0.002941
 1130   0.016160    -7.837938     -7.326940       0.008175       0.002941
 1131   0.016157    -7.862148     -7.351458       0.008175       0.002941
 1132   0.016149    -7.887150     -7.376806       0.008174       0.002941
 1133   0.016157    -7.912850     -7.402849       0.008173       0.002941
 1134   0.016157    -7.939153     -7.429470       0.008173       0.002941

-------------------------- File Output Summary --------------------------
Writing comma-separated values (CSV) surface files.
Merging coordinates in the Master node.
Merging solution in the Master node.
Writing SU2 native restart file.
Writing the forces breakdown file.
-------------------------------------------------------------------------

 1135   0.016349    -7.965924     -7.456513       0.008172       0.002941
 1136   0.016344    -7.993003     -7.483801       0.008172       0.002941
 1137   0.016337    -8.020197     -7.511118       0.008171       0.002941
 1138   0.016331    -8.047241     -7.538158       0.008171       0.002941
 1139   0.016325    -8.073925     -7.564709       0.008170       0.002941
 1140   0.016320    -8.100209     -7.590817       0.008170       0.002941
 1141   0.016315    -8.126166     -7.616652       0.008170       0.002941
 1142   0.016309    -8.151889     -7.642368       0.008169       0.002941
 1143   0.016302    -8.177450     -7.668056       0.008169       0.002941
 1144   0.016296    -8.202849     -7.693698       0.008169       0.002941
 1145   0.016291    -8.228070     -7.719261       0.008168       0.002941
 1146   0.016285    -8.253123     -7.744755       0.008168       0.002941
 1147   0.016279    -8.277882     -7.769988       0.008168       0.002941
 1148   0.016276    -8.301986     -7.794448       0.008167       0.002941
 1149   0.016272    -8.325005     -7.817575       0.008167       0.002941
 1150   0.016267    -8.346588     -7.838963       0.008167       0.002941
 1151   0.016263    -8.366411     -7.858254       0.008167       0.002941
 1152   0.016256    -8.384200     -7.875152       0.008166       0.002941
 1153   0.016250    -8.399811     -7.889542       0.008166       0.002941
 1154   0.016246    -8.413318     -7.901588       0.008166       0.002941
 1155   0.016242    -8.424996     -7.911696       0.008166       0.002941
 1156   0.016239    -8.435209     -7.920342       0.008166       0.002941
 1157   0.016233    -8.444338     -7.927976       0.008165       0.002941
 1158   0.016229    -8.452785     -7.935069       0.008165       0.002941
 1159   0.016224    -8.460956     -7.942079       0.008165       0.002941
 1160   0.016221    -8.469188     -7.949363       0.008165       0.002941
 1161   0.016214    -8.477715     -7.957135       0.008165       0.002941
 1162   0.016212    -8.486666     -7.965484       0.008165       0.002941
 1163   0.016206    -8.496093     -7.974417       0.008164       0.002941

---------------------- Local Time Stepping Summary ----------------------
MG level: 0 -> Min. DT: 0.000497894. Max. DT: 3.63163. CFL: 10.
MG level: 1 -> Min. DT: 0.00079948. Max. DT: 5.71421. CFL: 8.35917.
MG level: 2 -> Min. DT: 0.00156624. Max. DT: 8.31539. CFL: 7.39444.
-------------------------------------------------------------------------

----------------------- Residual Evolution Summary ----------------------
log10[Maximum residual]: -7.34687.
Maximum residual point 526, located at (0.434134, -0.090477).
-------------------------------------------------------------------------

 Iter    Time(s)     Res[Rho]     Res[RhoE]      CL(Total)      CD(Total)
 1164   0.016200    -8.505981     -7.983870       0.008164       0.002941
 1165   0.016195    -8.516261     -7.993727       0.008164       0.002941
 1166   0.016192    -8.526835     -8.003848       0.008164       0.002941
 1167   0.016196    -8.537597     -8.014099       0.008164       0.002941
 1168   0.016231    -8.548459     -8.024379       0.008164       0.002941
 1169   0.016262    -8.559357     -8.034622       0.008164       0.002941
 1170   0.016281    -8.570258     -8.044805       0.008163       0.002941
 1171   0.016289    -8.581158     -8.054940       0.008163       0.002941
 1172   0.016293    -8.592095     -8.065094       0.008163       0.002941
 1173   0.016287    -8.603154     -8.075388       0.008163       0.002941
 1174   0.016293    -8.614465     -8.085993       0.008163       0.002941
 1175   0.016302    -8.626179     -8.097099       0.008163       0.002941
 1176   0.016308    -8.638437     -8.108869       0.008163       0.002941
 1177   0.016303    -8.651361     -8.121436       0.008163       0.002941
 1178   0.016301    -8.665058     -8.134912       0.008163       0.002941
 1179   0.016296    -8.679606     -8.149375       0.008163       0.002941
 1180   0.016291    -8.695053     -8.164866       0.008162       0.002941
 1181   0.016284    -8.711428     -8.181402       0.008162       0.002941
 1182   0.016281    -8.728736     -8.198979       0.008162       0.002941
 1183   0.016275    -8.746958     -8.217563       0.008162       0.002941
 1184   0.016268    -8.766061     -8.237112       0.008162       0.002941
 1185   0.016264    -8.786011     -8.257586       0.008162       0.002941
 1186   0.016259    -8.806769     -8.278948       0.008162       0.002941
 1187   0.016255    -8.828304     -8.301174       0.008162       0.002941
 1188   0.016250    -8.850602     -8.324269       0.008162       0.002941
 1189   0.016243    -8.873670     -8.348265       0.008162       0.002941
 1190   0.016240    -8.897521     -8.373200       0.008162       0.002941
 1191   0.016237    -8.922172     -8.399114       0.008162       0.002941
 1192   0.016232    -8.947629     -8.426034       0.008162       0.002941
 1193   0.016227    -8.973873     -8.453948       0.008162       0.002941
 1194   0.016241    -9.000836     -8.482774       0.008162       0.002941
 1195   0.016240    -9.028365     -8.512319       0.008162       0.002941
 1196   0.016237    -9.056186     -8.542229       0.008162       0.002941
 1197   0.016232    -9.083869     -8.571945       0.008162       0.002941
 1198   0.016232    -9.110804     -8.600691       0.008162       0.002941
 1199   0.016227    -9.136258     -8.627563       0.008162       0.002941
 1200   0.016224    -9.159505     -8.651723       0.008162       0.002941
 1201   0.016220    -9.179990     -8.672597       0.008161       0.002941
 1202   0.016215    -9.197439     -8.689991       0.008161       0.002941
 1203   0.016209    -9.211875     -8.704042       0.008161       0.002941

---------------------- Local Time Stepping Summary ----------------------
MG level: 0 -> Min. DT: 0.000497894. Max. DT: 3.63163. CFL: 10.
MG level: 1 -> Min. DT: 0.000799479. Max. DT: 5.71421. CFL: 8.35917.
MG level: 2 -> Min. DT: 0.00156624. Max. DT: 8.31539. CFL: 7.39444.
-------------------------------------------------------------------------

----------------------- Residual Evolution Summary ----------------------
log10[Maximum residual]: -8.00315.
Maximum residual point 526, located at (0.434134, -0.090477).
-------------------------------------------------------------------------

 Iter    Time(s)     Res[Rho]     Res[RhoE]      CL(Total)      CD(Total)
 1204   0.016205    -9.223506     -8.715049       0.008161       0.002941
 1205   0.016200    -9.232704     -8.723462       0.008161       0.002941
 1206   0.016201    -9.240022     -8.729945       0.008161       0.002941
 1207   0.016201    -9.246140     -8.735295       0.008161       0.002941
 1208   0.016199    -9.251701     -8.740219       0.008161       0.002941
 1209   0.016195    -9.257291     -8.745353       0.008161       0.002941
 1210   0.016190    -9.263434     -8.751261       0.008161       0.002941
 1211   0.016186    -9.270522     -8.758336       0.008161       0.002941
 1212   0.016181    -9.278771     -8.766742       0.008161       0.002941
 1213   0.016177    -9.288239     -8.776462       0.008161       0.002941
 1214   0.016172    -9.298880     -8.787379       0.008161       0.002941
 1215   0.016170    -9.310542     -8.799254       0.008161       0.002941
 1216   0.016165    -9.323112     -8.811948       0.008161       0.002941
 1217   0.016169    -9.336601     -8.825519       0.008161       0.002941
 1218   0.016166    -9.351088     -8.840098       0.008161       0.002941
 1219   0.016161    -9.366728     -8.855902       0.008161       0.002941
 1220   0.016159    -9.383719     -8.873191       0.008161       0.002941
 1221   0.016155    -9.402197     -8.892102       0.008161       0.002941
 1222   0.016150    -9.422266     -8.912735       0.008161       0.002941
 1223   0.016147    -9.444006     -8.935159       0.008161       0.002941
 1224   0.016143    -9.467452     -8.959387       0.008161       0.002941
 1225   0.016137    -9.492689     -8.985516       0.008161       0.002941
 1226   0.016133    -9.519751     -9.013564       0.008161       0.002941
 1227   0.016130    -9.548619     -9.043470       0.008161       0.002941
 1228   0.016126    -9.579188     -9.075068       0.008161       0.002941
 1229   0.016123    -9.611095     -9.107839       0.008161       0.002941
 1230   0.016118    -9.644170     -9.141649       0.008161       0.002941
 1231   0.016145    -9.678479     -9.176753       0.008161       0.002941
 1232   0.016171    -9.712962     -9.211460       0.008161       0.002941
 1233   0.016193    -9.751549     -9.252196       0.008161       0.002941
 1234   0.016197    -9.784764     -9.283639       0.008161       0.002941
 1235   0.016204    -9.823762     -9.324716       0.008161       0.002941
 1236   0.016200    -9.862577     -9.365031       0.008161       0.002941

-------------------------- File Output Summary --------------------------
Writing comma-separated values (CSV) surface files.
Merging coordinates in the Master node.
Merging solution in the Master node.
Writing SU2 native restart file.
Writing the forces breakdown file.
-------------------------------------------------------------------------

History file, closed.

------------------------- Solver Postprocessing -------------------------
Deleted CNumerics container.
Deleted CIntegration container.
Deleted CSolver container.
Deleted CIteration container.
Deleted CInterpolator container.
Deleted CTransfer container.
Deleted CGeometry container.
Deleted CFreeFormDefBox class.
Deleted CSurfaceMovement class.
Deleted CVolumetricMovement class.
Deleted CConfig container.
Deleted COutput class.
-------------------------------------------------------------------------

Completed in 5.777205 seconds on 8 cores.

------------------------- Exit Success (SU2_CFD) ------------------------


-------------------------------------------------------------------------
|    ___ _   _ ___                                                      |
|   / __| | | |_  )   Release 5.0.0  "Raven"                            |
|   \__ \ |_| |/ /                                                      |
|   |___/\___//___|   Suite (Solution Exporting Code)                   |
|                                                                       |
-------------------------------------------------------------------------
| SU2 Original Developers: Dr. Francisco D. Palacios.                   |
|                          Dr. Thomas D. Economon.                      |
-------------------------------------------------------------------------
| SU2 Developers:                                                       |
| - Prof. Juan J. Alonso's group at Stanford University.                |
| - Prof. Piero Colonna's group at Delft University of Technology.      |
| - Prof. Nicolas R. Gauger's group at Kaiserslautern U. of Technology. |
| - Prof. Alberto Guardone's group at Polytechnic University of Milan.  |
| - Prof. Rafael Palacios' group at Imperial College London.            |
| - Prof. Edwin van der Weide's group at the University of Twente.      |
| - Prof. Vincent Terrapon's group at the University of Liege.          |
-------------------------------------------------------------------------
| Copyright (C) 2012-2017 SU2, the open-source CFD code.                |
|                                                                       |
| SU2 is free software; you can redistribute it and/or                  |
| modify it under the terms of the GNU Lesser General Public            |
| License as published by the Free Software Foundation; either          |
| version 2.1 of the License, or (at your option) any later version.    |
|                                                                       |
| SU2 is distributed in the hope that it will be useful,                |
| but WITHOUT ANY WARRANTY; without even the implied warranty of        |
| MERCHANTABILITY or FITNESS FOR A PARTICULAR PURPOSE. See the GNU      |
| Lesser General Public License for more details.                       |
|                                                                       |
| You should have received a copy of the GNU Lesser General Public      |
| License along with SU2. If not, see <http://www.gnu.org/licenses/>.   |
-------------------------------------------------------------------------

------------------------ Physical Case Definition -----------------------
Input mesh file name: mesh_NACA0012_inv_deform.su2

-------------------------- Output Information ---------------------------
The output file format is Tecplot ASCII (.dat).
Flow variables file name: flow.

------------------- Config File Boundary Information --------------------
Euler wall boundary marker(s): airfoil.
Far-field boundary marker(s): farfield.

---------------------- Read Grid File Information -----------------------
Two dimensional problem.
5233 points before parallel partitioning.
Performing linear partitioning of the grid nodes.
10216 interior elements before parallel partitioning.
Calling the partitioning functions.
Building the graph adjacency structure.
Distributing elements across all ranks.
2 surface markers.
200 boundary elements in index 0 (Marker = airfoil).
50 boundary elements in index 1 (Marker = farfield).
Calling ParMETIS...
Finished partitioning using ParMETIS (547 edge cuts).
Communicating partition data and creating halo layers.
10763 interior elements including halo cells. 
10763 triangles.
5796 vertices including ghost points. 
Establishing MPI communication patterns.
Identify vertices.

------------------------- Solution Postprocessing -----------------------
Reading and storing the solution from restart_flow.dat.
Merging connectivities in the Master node.
Merging solution in the Master node.
Writing Tecplot ASCII file (volume grid).
Writing Tecplot ASCII file (surface grid).

Completed in 0.120803 seconds on 8 cores.

------------------------- Exit Success (SU2_SOL) ------------------------

