
-------------------------------------------------------------------------
|    ___ _   _ ___                                                      |
|   / __| | | |_  )   Release 5.0.0  "Raven"                            |
|   \__ \ |_| |/ /                                                      |
|   |___/\___//___|   Suite (Computational Fluid Dynamics Code)         |
|                                                                       |
-------------------------------------------------------------------------
| SU2 Original Developers: Dr. Francisco D. Palacios.                   |
|                          Dr. Thomas D. Economon.                      |
-------------------------------------------------------------------------
| SU2 Developers:                                                       |
| - Prof. Juan J. Alonso's group at Stanford University.                |
| - Prof. Piero Colonna's group at Delft University of Technology.      |
| - Prof. Nicolas R. Gauger's group at Kaiserslautern U. of Technology. |
| - Prof. Alberto Guardone's group at Polytechnic University of Milan.  |
| - Prof. Rafael Palacios' group at Imperial College London.            |
| - Prof. Edwin van der Weide's group at the University of Twente.      |
| - Prof. Vincent Terrapon's group at the University of Liege.          |
-------------------------------------------------------------------------
| Copyright (C) 2012-2017 SU2, the open-source CFD code.                |
|                                                                       |
| SU2 is free software; you can redistribute it and/or                  |
| modify it under the terms of the GNU Lesser General Public            |
| License as published by the Free Software Foundation; either          |
| version 2.1 of the License, or (at your option) any later version.    |
|                                                                       |
| SU2 is distributed in the hope that it will be useful,                |
| but WITHOUT ANY WARRANTY; without even the implied warranty of        |
| MERCHANTABILITY or FITNESS FOR A PARTICULAR PURPOSE. See the GNU      |
| Lesser General Public License for more details.                       |
|                                                                       |
| You should have received a copy of the GNU Lesser General Public      |
| License along with SU2. If not, see <http://www.gnu.org/licenses/>.   |
-------------------------------------------------------------------------

------------------------ Physical Case Definition -----------------------
Compressible Euler equations.
Mach number: 0.8.
Angle of attack (AoA): 1.25 deg, and angle of sideslip (AoS): 0 deg.
Read flow solution from: solution_flow.dat.
Non-Dimensional simulation (P=1.0, Rho=1.0, T=1.0 at the farfield).
The reference length/area (force coefficient) is 1.
The reference length (moment computation) is 1.
Reference origin (moment computation) is (0.25, 0, 0).
Surface(s) where the force coefficients are evaluated: airfoil.
Surface(s) plotted in the output file: airfoil.
Surface(s) affected by the design variables: airfoil.
Input mesh file name: mesh_NACA0012_inv_deform.su2

---------------------- Space Numerical Integration ----------------------
Jameson-Schmidt-Turkel scheme for the flow inviscid terms.
JST viscous coefficients (1st, 2nd & 4th): 0.15, 0.5, 0.02.
The method includes a grid stretching correction (p = 0.3).
Second order integration.
Gradient computation using Green-Gauss theorem.

---------------------- Time Numerical Integration -----------------------
Local time stepping (steady state simulation).
Euler implicit method for the flow equations.
V Multigrid Cycle, with 2 multigrid levels.
Damping factor for the residual restriction: 1.
Damping factor for the correction prolongation: 1.
No CFL adaptation.
Multigrid Level:                       0     1     2
Courant-Friedrichs-Lewy number:       10
MG PreSmooth coefficients:             1     2     3
MG PostSmooth coefficients:            0     0     0
MG CorrecSmooth coefficients:          0     0     0

------------------------- Convergence Criteria --------------------------
Maximum number of iterations: 1000.
Reduce the density residual 6 orders of magnitude.
The minimum bound for the density residual is 10^(-13).
Start convergence criteria at iteration 10.

-------------------------- Output Information ---------------------------
Writing a flow solution every 250 iterations.
Writing the convergence history every 1 iterations.
The output file format is Tecplot ASCII (.dat).
Convergence history file name: history_direct.
Forces breakdown file name: forces_breakdown.dat.
Surface flow coefficients file name: surface_flow.
Flow variables file name: flow.
Restart flow file name: restart_flow.dat.

------------------- Config File Boundary Information --------------------
Euler wall boundary marker(s): airfoil.
Far-field boundary marker(s): farfield.

---------------------- Read Grid File Information -----------------------
Two dimensional problem.
5233 points before parallel partitioning.
Performing linear partitioning of the grid nodes.
10216 interior elements before parallel partitioning.
Calling the partitioning functions.
Building the graph adjacency structure.
Distributing elements across all ranks.
2 surface markers.
200 boundary elements in index 0 (Marker = airfoil).
50 boundary elements in index 1 (Marker = farfield).
Calling ParMETIS...
Finished partitioning using ParMETIS (547 edge cuts).
Communicating partition data and creating halo layers.
10763 interior elements including halo cells. 
10763 triangles.
5796 vertices including ghost points. 
Establishing MPI communication patterns.

------------------------- Geometry Preprocessing ------------------------
Setting point connectivity.
Renumbering points (Reverse Cuthill McKee Ordering).
Recomputing point connectivity.
Setting element connectivity.
Checking the numerical grid orientation.
Identifying edges and vertices.
Computing centers of gravity.
Setting the control volume structure.
Area of the computational grid: 1.3e+03.
Searching for the closest normal neighbors to the surfaces.
Compute the surface curvature.
Max K: 7.84e+03. Mean K: 35.6. Standard deviation K: 494.
Checking for periodicity.
Setting the multigrid structure.
MG level: 0 -> CVs: 5796. Agglomeration rate 1/1.00. CFL 10.
MG level: 1 -> CVs: 1800. Agglomeration rate 1/3.22. CFL 8.36.
MG level: 2 -> CVs: 626. Agglomeration rate 1/2.88. CFL 7.39.
Computing wall distances.
Wetted area = 2.03 m.
Area projection in the x-plane = 0.107 m, y-plane = 1 m.

------------------------- Driver information --------------------------
A Fluid driver has been instantiated.

------------------------ Iteration Preprocessing ------------------------
Zone 1: Euler/Navier-Stokes/RANS flow iteration.

------------------------- Solver Preprocessing --------------------------
Inviscid flow: Computing density based on free-stream
temperature and pressure using the ideal gas law.
Force coefficients computed using free-stream values.
-- Input conditions:
Fluid Model: STANDARD_AIR 
Specific gas constant: 287.058 N.m/kg.K.
Specific gas constant (non-dim): 1
Specific Heat Ratio: 1.4
Free-stream static pressure: 101325 Pa.
Free-stream total pressure: 154454 Pa.
Free-stream temperature: 288.15 K.
Free-stream density: 1.22498 kg/m^3.
Free-stream velocity: (272.173, 5.93883) m/s. Magnitude: 272.238 m/s (529.186 KTS).
Free-stream total energy per unit mass: 243846 m^2/s^2.
-- Reference values:
Reference specific gas constant: 287.058 N.m/kg.K.
Reference pressure: 101325 Pa.
Reference temperature: 288.15 K.
Reference density: 1.22498 kg/m^3.
Reference velocity: 287.603 m/s.
Reference energy per unit mass: 82715.8 m^2/s^2.
-- Resulting non-dimensional state:
Mach number (non-dim): 0.8
Specific gas constant (non-dim): 1
Free-stream temperature (non-dim): 1
Free-stream pressure (non-dim): 1
Free-stream density (non-dim): 1
Free-stream velocity (non-dim): (0.946348, 0.0206494). Magnitude: 0.946573
Free-stream total energy per unit mass (non-dim): 2.948

Initialize Jacobian structure (Euler). MG level: 0.
Initialize Jacobian structure (Euler). MG level: 1.
Initialize Jacobian structure (Euler). MG level: 2.

----------------- Integration and Numerics Preprocessing ----------------
Integration Preprocessing.
Numerics Preprocessing.

------------------------------ Begin Solver -----------------------------

---------------------- Local Time Stepping Summary ----------------------
MG level: 0 -> Min. DT: 0.000497805. Max. DT: 3.62864. CFL: 10.
MG level: 1 -> Min. DT: 0.000799994. Max. DT: 5.7111. CFL: 8.35917.
MG level: 2 -> Min. DT: 0.00155935. Max. DT: 8.31062. CFL: 7.39444.
-------------------------------------------------------------------------

----------------------- Residual Evolution Summary ----------------------
log10[Maximum residual]: -5.28694.
Maximum residual point 105, located at (0.00752, 0.011584).
-------------------------------------------------------------------------

 Iter    Time(s)     Res[Rho]     Res[RhoE]      CL(Total)      CD(Total)
 3273   0.015775    -6.389512     -5.793133       0.066812       0.000649
 3274   0.015435    -6.447313     -5.844021       0.066751       0.000582
 3275   0.015347    -6.450030     -5.850085       0.066708       0.000558
 3276   0.015276    -6.418081     -5.814500       0.066657       0.000536
 3277   0.015362    -6.375641     -5.770220       0.066599       0.000520
 3278   0.015320    -6.342401     -5.739011       0.066534       0.000508
 3279   0.015420    -6.313407     -5.711151       0.066468       0.000499
 3280   0.015436    -6.286441     -5.683317       0.066406       0.000491
 3281   0.015382    -6.268417     -5.664726       0.066349       0.000484
 3282   0.015375    -6.257839     -5.653872       0.066299       0.000479
 3283   0.015398    -6.253547     -5.649453       0.066254       0.000475
 3284   0.015420    -6.254070     -5.649902       0.066215       0.000472
 3285   0.015445    -6.257679     -5.653468       0.066179       0.000470
 3286   0.015455    -6.262982     -5.658805       0.066146       0.000468
 3287   0.015511    -6.269176     -5.665117       0.066116       0.000467
 3288   0.015578    -6.275760     -5.671810       0.066088       0.000466
 3289   0.015545    -6.282225     -5.678180       0.066064       0.000465
 3290   0.015525    -6.288032     -5.683461       0.066041       0.000465
 3291   0.015835    -6.292801     -5.687129       0.066021       0.000465
 3292   0.015882    -6.296507     -5.689180       0.066002       0.000464
 3293   0.015838    -6.299531     -5.690158       0.065985       0.000464
 3294   0.015811    -6.302514     -5.690921       0.065969       0.000464
 3295   0.015754    -6.306221     -5.692434       0.065954       0.000464
 3296   0.015782    -6.311530     -5.695731       0.065941       0.000463
 3297   0.015785    -6.319514     -5.702005       0.065929       0.000463
 3298   0.015747    -6.331552     -5.712752       0.065918       0.000462
 3299   0.015717    -6.349467     -5.729934       0.065907       0.000461
 3300   0.015659    -6.375709     -5.756191       0.065897       0.000460
 3301   0.015634    -6.413801     -5.795340       0.065888       0.000458
 3302   0.015617    -6.468755     -5.852882       0.065878       0.000457
 3303   0.015604    -6.541500     -5.930137       0.065868       0.000455
 3304   0.015610    -6.604735     -5.997737       0.065855       0.000453
 3305   0.015603    -6.637907     -6.033301       0.065840       0.000452
 3306   0.015593    -6.659008     -6.056773       0.065823       0.000451
 3307   0.015590    -6.677828     -6.078761       0.065806       0.000450
 3308   0.015579    -6.692971     -6.096986       0.065789       0.000449
 3309   0.015572    -6.700518     -6.106543       0.065773       0.000448
 3310   0.015567    -6.703276     -6.110673       0.065757       0.000448
 3311   0.015564    -6.705321     -6.114124       0.065742       0.000447
 3312   0.015551    -6.707297     -6.117597       0.065727       0.000446

---------------------- Local Time Stepping Summary ----------------------
MG level: 0 -> Min. DT: 0.000497817. Max. DT: 3.62864. CFL: 10.
MG level: 1 -> Min. DT: 0.000800005. Max. DT: 5.7111. CFL: 8.35917.
MG level: 2 -> Min. DT: 0.0015594. Max. DT: 8.31063. CFL: 7.39444.
-------------------------------------------------------------------------

----------------------- Residual Evolution Summary ----------------------
log10[Maximum residual]: -5.77001.
Maximum residual point 1582, located at (0.537298, 0.217734).
-------------------------------------------------------------------------

 Iter    Time(s)     Res[Rho]     Res[RhoE]      CL(Total)      CD(Total)
 3313   0.015545    -6.708119     -6.119788       0.065714       0.000446
 3314   0.015663    -6.707699     -6.120528       0.065701       0.000446
 3315   0.015678    -6.706647     -6.120421       0.065689       0.000446
 3316   0.015738    -6.705273     -6.119745       0.065678       0.000446
 3317   0.015864    -6.703780     -6.118692       0.065668       0.000446
 3318   0.015841    -6.702566     -6.117708       0.065659       0.000446
 3319   0.015818    -6.702012     -6.117228       0.065651       0.000446
 3320   0.015959    -6.702368     -6.117546       0.065644       0.000447
 3321   0.015965    -6.703863     -6.118943       0.065637       0.000447
 3322   0.015944    -6.706727     -6.121701       0.065630       0.000447
 3323   0.015919    -6.711133     -6.126046       0.065624       0.000447
 3324   0.015909    -6.717215     -6.132166       0.065619       0.000447
 3325   0.015897    -6.725107     -6.140254       0.065613       0.000447
 3326   0.015885    -6.734932     -6.150497       0.065608       0.000448
 3327   0.015895    -6.746758     -6.163023       0.065604       0.000448
 3328   0.015946    -6.760631     -6.177943       0.065599       0.000448
 3329   0.015996    -6.776637     -6.195411       0.065595       0.000448
 3330   0.016054    -6.794886     -6.215614       0.065590       0.000448
 3331   0.016043    -6.815477     -6.238734       0.065586       0.000448
 3332   0.016041    -6.838506     -6.264948       0.065583       0.000448
 3333   0.016032    -6.864122     -6.294494       0.065579       0.000448
 3334   0.016028    -6.892540     -6.327700       0.065575       0.000448
 3335   0.016018    -6.924015     -6.364923       0.065572       0.000448
 3336   0.016007    -6.958696     -6.406374       0.065569       0.000449
 3337   0.015993    -6.996344     -6.451707       0.065566       0.000449
 3338   0.015984    -7.035377     -6.498683       0.065563       0.000449
 3339   0.015987    -7.070499     -6.539913       0.065560       0.000449
 3340   0.015981    -7.090191     -6.559974       0.065558       0.000449
 3341   0.015973    -7.085898     -6.549510       0.065556       0.000450
 3342   0.015965    -7.069513     -6.526299       0.065555       0.000450
 3343   0.015955    -7.054736     -6.507191       0.065554       0.000450
 3344   0.015943    -7.046538     -6.496659       0.065553       0.000450
 3345   0.015933    -7.043702     -6.492361       0.065553       0.000451
 3346   0.015921    -7.044870     -6.492819       0.065552       0.000451
 3347   0.015913    -7.051686     -6.500367       0.065552       0.000451
 3348   0.015903    -7.062478     -6.512882       0.065551       0.000451
 3349   0.015960    -7.074180     -6.526391       0.065551       0.000451
 3350   0.016001    -7.085709     -6.539563       0.065551       0.000452
 3351   0.015989    -7.095354     -6.550206       0.065550       0.000452
 3352   0.015978    -7.102903     -6.558107       0.065550       0.000452

---------------------- Local Time Stepping Summary ----------------------
MG level: 0 -> Min. DT: 0.000497804. Max. DT: 3.62864. CFL: 10.
MG level: 1 -> Min. DT: 0.0008. Max. DT: 5.71111. CFL: 8.35917.
MG level: 2 -> Min. DT: 0.00155936. Max. DT: 8.31064. CFL: 7.39444.
-------------------------------------------------------------------------

----------------------- Residual Evolution Summary ----------------------
log10[Maximum residual]: -5.94648.
Maximum residual point 1601, located at (0.506524, 0.21858).
-------------------------------------------------------------------------

 Iter    Time(s)     Res[Rho]     Res[RhoE]      CL(Total)      CD(Total)
 3353   0.015971    -7.109522     -6.564879       0.065550       0.000452
 3354   0.015976    -7.116033     -6.571561       0.065550       0.000452
 3355   0.015967    -7.122824     -6.578560       0.065549       0.000452
 3356   0.015963    -7.130025     -6.585984       0.065549       0.000452
 3357   0.015954    -7.137720     -6.593936       0.065549       0.000452
 3358   0.015953    -7.146024     -6.602595       0.065549       0.000452
 3359   0.015947    -7.155075     -6.612166       0.065549       0.000452
 3360   0.015947    -7.165053     -6.622882       0.065549       0.000452
 3361   0.015941    -7.176157     -6.634984       0.065549       0.000452
 3362   0.015931    -7.188603     -6.648728       0.065548       0.000452
 3363   0.015926    -7.202578     -6.664317       0.065548       0.000452
 3364   0.015924    -7.218192     -6.681854       0.065548       0.000452
 3365   0.015921    -7.235447     -6.701303       0.065548       0.000452
 3366   0.015913    -7.254277     -6.722549       0.065548       0.000452
 3367   0.015907    -7.274562     -6.745427       0.065548       0.000452
 3368   0.015901    -7.296102     -6.769674       0.065548       0.000452
 3369   0.015897    -7.318491     -6.794779       0.065548       0.000452
 3370   0.015893    -7.340923     -6.819733       0.065549       0.000452
 3371   0.015886    -7.361730     -6.842352       0.065549       0.000452
 3372   0.015880    -7.378146     -6.858709       0.065549       0.000452
 3373   0.015887    -7.387917     -6.866448       0.065549       0.000452
 3374   0.015882    -7.389753     -6.864735       0.065550       0.000452
 3375   0.015885    -7.386376     -6.857491       0.065550       0.000452
 3376   0.015929    -7.382448     -6.850759       0.065550       0.000452
 3377   0.015919    -7.380763     -6.847654       0.065550       0.000452
 3378   0.015962    -7.381874     -6.848334       0.065550       0.000452
 3379   0.015956    -7.386086     -6.852918       0.065550       0.000452
 3380   0.015949    -7.393793     -6.861816       0.065550       0.000452
 3381   0.015948    -7.404948     -6.874878       0.065550       0.000452
 3382   0.015949    -7.419115     -6.891442       0.065550       0.000452
 3383   0.015958    -7.435821     -6.910847       0.065550       0.000452
 3384   0.015956    -7.454870     -6.932832       0.065550       0.000452
 3385   0.015955    -7.476473     -6.957653       0.065550       0.000452
 3386   0.015953    -7.500762     -6.985415       0.065550       0.000452
 3387   0.015950    -7.526832     -7.014809       0.065550       0.000452
 3388   0.015944    -7.552692     -7.043107       0.065550       0.000452
 3389   0.015937    -7.576591     -7.068148       0.065550       0.000452
 3390   0.015936    -7.597766     -7.089315       0.065550       0.000452
 3391   0.015953    -7.615951     -7.106590       0.065550       0.000452
 3392   0.016016    -7.632067     -7.121478       0.065550       0.000452

---------------------- Local Time Stepping Summary ----------------------
MG level: 0 -> Min. DT: 0.000497804. Max. DT: 3.62864. CFL: 10.
MG level: 1 -> Min. DT: 0.000800001. Max. DT: 5.71111. CFL: 8.35917.
MG level: 2 -> Min. DT: 0.00155936. Max. DT: 8.31064. CFL: 7.39444.
-------------------------------------------------------------------------

----------------------- Residual Evolution Summary ----------------------
log10[Maximum residual]: -6.4654.
Maximum residual point 261, located at (0.583333, 0.0574992).
-------------------------------------------------------------------------

 Iter    Time(s)     Res[Rho]     Res[RhoE]      CL(Total)      CD(Total)
 3393   0.016012    -7.649513     -7.138838       0.065550       0.000452
 3394   0.016008    -7.670137     -7.160891       0.065550       0.000452
 3395   0.016003    -7.691894     -7.183907       0.065550       0.000452
 3396   0.015996    -7.713977     -7.206637       0.065550       0.000452
 3397   0.015990    -7.736470     -7.229628       0.065550       0.000452
 3398   0.015987    -7.758367     -7.251570       0.065550       0.000452
 3399   0.015981    -7.779825     -7.272852       0.065549       0.000452
 3400   0.016001    -7.801349     -7.294341       0.065549       0.000452
 3401   0.015993    -7.822990     -7.316094       0.065549       0.000452
 3402   0.015986    -7.844511     -7.337686       0.065548       0.000452
 3403   0.015988    -7.866749     -7.360419       0.065548       0.000452
 3404   0.015984    -7.889421     -7.383614       0.065548       0.000452
 3405   0.015978    -7.908593     -7.401498       0.065547       0.000452
 3406   0.015979    -7.933690     -7.428784       0.065547       0.000452
 3407   0.015978    -7.956301     -7.451802       0.065547       0.000452
 3408   0.015973    -7.979562     -7.475238       0.065547       0.000452
 3409   0.015968    -8.001402     -7.496788       0.065546       0.000452
 3410   0.015965    -8.021829     -7.516475       0.065546       0.000452
 3411   0.015959    -8.042255     -7.536313       0.065546       0.000452
 3412   0.015955    -8.061741     -7.555237       0.065546       0.000452
 3413   0.015951    -8.081457     -7.574354       0.065545       0.000452
 3414   0.015947    -8.100919     -7.593384       0.065545       0.000452
 3415   0.015942    -8.121040     -7.613267       0.065545       0.000452
 3416   0.015939    -8.141352     -7.633395       0.065545       0.000452
 3417   0.015945    -8.162390     -7.654424       0.065545       0.000452
 3418   0.015940    -8.183663     -7.675623       0.065545       0.000452
 3419   0.015946    -8.205774     -7.697897       0.065545       0.000452
 3420   0.015943    -8.229103     -7.721760       0.065545       0.000452
 3421   0.015940    -8.253567     -7.746982       0.065545       0.000452
 3422   0.015936    -8.278968     -7.773192       0.065545       0.000452
 3423   0.015938    -8.305194     -7.800246       0.065545       0.000452
 3424   0.015936    -8.332138     -7.828035       0.065545       0.000452
 3425   0.015932    -8.359769     -7.856541       0.065545       0.000452
 3426   0.015929    -8.388126     -7.885833       0.065545       0.000452
 3427   0.015931    -8.417446     -7.916245       0.065545       0.000452
 3428   0.015931    -8.448039     -7.948171       0.065545       0.000452
 3429   0.015928    -8.480044     -7.981707       0.065545       0.000452
 3430   0.015928    -8.513279     -8.016482       0.065545       0.000452
 3431   0.015925    -8.547076     -8.051474       0.065545       0.000452
 3432   0.015921    -8.580132     -8.084841       0.065545       0.000452

---------------------- Local Time Stepping Summary ----------------------
MG level: 0 -> Min. DT: 0.000497804. Max. DT: 3.62864. CFL: 10.
MG level: 1 -> Min. DT: 0.0008. Max. DT: 5.71111. CFL: 8.35917.
MG level: 2 -> Min. DT: 0.00155936. Max. DT: 8.31064. CFL: 7.39444.
-------------------------------------------------------------------------

----------------------- Residual Evolution Summary ----------------------
log10[Maximum residual]: -7.3461.
Maximum residual point 261, located at (0.583333, 0.0574992).
-------------------------------------------------------------------------

 Iter    Time(s)     Res[Rho]     Res[RhoE]      CL(Total)      CD(Total)
 3433   0.015918    -8.610257     -8.113691       0.065545       0.000452
 3434   0.015915    -8.636716     -8.137714       0.065545       0.000452
 3435   0.015911    -8.664822     -8.164883       0.065545       0.000452
 3436   0.015908    -8.687120     -8.183964       0.065545       0.000452
 3437   0.015914    -8.699068     -8.189278       0.065545       0.000452
 3438   0.015927    -8.738413     -8.236468       0.065545       0.000452
 3439   0.015953    -8.775586     -8.280002       0.065545       0.000452
 3440   0.015959    -8.797493     -8.296309       0.065545       0.000452
 3441   0.015969    -8.834263     -8.336056       0.065545       0.000452
 3442   0.015964    -8.871255     -8.375665       0.065545       0.000452
 3443   0.015959    -8.895645     -8.395240       0.065545       0.000452
 3444   0.015959    -8.930063     -8.430835       0.065545       0.000452
 3445   0.015960    -8.963922     -8.465822       0.065545       0.000452
 3446   0.015956    -8.997163     -8.498934       0.065545       0.000452
 3447   0.015953    -9.024314     -8.523236       0.065545       0.000452
 3448   0.015950    -9.044752     -8.538918       0.065546       0.000452
 3449   0.015944    -9.067488     -8.559669       0.065546       0.000452
 3450   0.015942    -9.097823     -8.592751       0.065546       0.000452
 3451   0.015937    -9.122862     -8.617110       0.065546       0.000452
 3452   0.015934    -9.148694     -8.642589       0.065546       0.000452
 3453   0.015947    -9.179890     -8.675881       0.065546       0.000452
 3454   0.015956    -9.214381     -8.713487       0.065546       0.000452
 3455   0.015989    -9.246261     -8.745889       0.065546       0.000452
 3456   0.015984    -9.276637     -8.776117       0.065546       0.000452
 3457   0.015978    -9.308010     -8.808281       0.065546       0.000452
 3458   0.015972    -9.335360     -8.834388       0.065546       0.000452
 3459   0.015967    -9.357494     -8.853665       0.065546       0.000452
 3460   0.015963    -9.379501     -8.874113       0.065546       0.000452
 3461   0.015960    -9.400606     -8.894006       0.065546       0.000452
 3462   0.015955    -9.419377     -8.910917       0.065546       0.000452
 3463   0.015955    -9.435678     -8.924826       0.065546       0.000452
 3464   0.015949    -9.452903     -8.940779       0.065546       0.000452
 3465   0.015947    -9.472949     -8.961023       0.065546       0.000452
 3466   0.015946    -9.491948     -8.979423       0.065546       0.000452
 3467   0.015944    -9.509362     -8.995514       0.065546       0.000452
 3468   0.015940    -9.529042     -9.015112       0.065546       0.000452
 3469   0.015941    -9.548365     -9.034048       0.065546       0.000452
 3470   0.015937    -9.561308     -9.044040       0.065546       0.000452
 3471   0.015941    -9.571160     -9.050775       0.065546       0.000452
 3472   0.015938    -9.582201     -9.060118       0.065546       0.000452

---------------------- Local Time Stepping Summary ----------------------
MG level: 0 -> Min. DT: 0.000497804. Max. DT: 3.62864. CFL: 10.
MG level: 1 -> Min. DT: 0.0008. Max. DT: 5.71111. CFL: 8.35917.
MG level: 2 -> Min. DT: 0.00155936. Max. DT: 8.31064. CFL: 7.39444.
-------------------------------------------------------------------------

----------------------- Residual Evolution Summary ----------------------
log10[Maximum residual]: -8.42083.
Maximum residual point 436, located at (0.363662, 0.0609973).
-------------------------------------------------------------------------

 Iter    Time(s)     Res[Rho]     Res[RhoE]      CL(Total)      CD(Total)
 3473   0.015936    -9.590781     -9.066429       0.065546       0.000452
 3474   0.015934    -9.594947     -9.067275       0.065546       0.000452
 3475   0.015934    -9.600315     -9.070554       0.065546       0.000452
 3476   0.015931    -9.609018     -9.078675       0.065546       0.000452
 3477   0.015928    -9.616698     -9.085269       0.065546       0.000452
 3478   0.015924    -9.621459     -9.088022       0.065546       0.000452
 3479   0.015922    -9.627704     -9.093080       0.065546       0.000452
 3480   0.015926    -9.637585     -9.103060       0.065546       0.000452
 3481   0.015925    -9.647959     -9.113420       0.065546       0.000452
 3482   0.015924    -9.656091     -9.120626       0.065547       0.000452
 3483   0.015923    -9.664665     -9.128528       0.065547       0.000452
 3484   0.015922    -9.676329     -9.140582       0.065547       0.000452
 3485   0.015920    -9.689012     -9.153792       0.065547       0.000452
 3486   0.015917    -9.699506     -9.163917       0.065547       0.000452
 3487   0.015916    -9.709773     -9.173814       0.065547       0.000452
 3488   0.015916    -9.722892     -9.187584       0.065547       0.000452
 3489   0.015913    -9.736878     -9.202380       0.065547       0.000452
 3490   0.015909    -9.748413     -9.213767       0.065547       0.000452
 3491   0.015908    -9.760178     -9.225526       0.065547       0.000452
 3492   0.015908    -9.775094     -9.241562       0.065547       0.000452
 3493   0.015907    -9.789548     -9.256835       0.065547       0.000452
 3494   0.015902    -9.801015     -9.268012       0.065547       0.000452
 3495   0.015901    -9.814427     -9.281906       0.065547       0.000452
 3496   0.015901    -9.830641     -9.299588       0.065547       0.000452
 3497   0.015897    -9.843508     -9.312588       0.065547       0.000452
 3498   0.015895    -9.854760     -9.323441       0.065547       0.000452
 3499   0.015894    -9.870544     -9.340539       0.065547       0.000452
 3500   0.015891    -9.885907     -9.356955       0.065547       0.000452
 3501   0.015890    -9.896111     -9.366284       0.065547       0.000452
 3502   0.015908    -9.909601     -9.380195       0.065547       0.000452
 3503   0.015903    -9.927047     -9.399509       0.065547       0.000452
 3504   0.015920    -9.938513     -9.410470       0.065547       0.000452
 3505   0.015918    -9.948928     -9.420081       0.065547       0.000452
 3506   0.015915    -9.966464     -9.439520       0.065547       0.000452
 3507   0.015912    -9.981329     -9.455105       0.065547       0.000452
 3508   0.015909    -9.989509     -9.461545       0.065547       0.000452
 3509   0.015910   -10.004235     -9.477086       0.065547       0.000452
 3510   0.015910   -10.022862     -9.497936       0.065547       0.000452
 3511   0.015907   -10.032007     -9.505561       0.065547       0.000452
 3512   0.015905   -10.041512     -9.513898       0.065547       0.000452

---------------------- Local Time Stepping Summary ----------------------
MG level: 0 -> Min. DT: 0.000497804. Max. DT: 3.62864. CFL: 10.
MG level: 1 -> Min. DT: 0.0008. Max. DT: 5.71111. CFL: 8.35917.
MG level: 2 -> Min. DT: 0.00155936. Max. DT: 8.31064. CFL: 7.39444.
-------------------------------------------------------------------------

----------------------- Residual Evolution Summary ----------------------
log10[Maximum residual]: -8.95559.
Maximum residual point 435, located at (0.333462, 0.0601755).
-------------------------------------------------------------------------

 Iter    Time(s)     Res[Rho]     Res[RhoE]      CL(Total)      CD(Total)
 3513   0.015903   -10.060538     -9.535447       0.065547       0.000452
 3514   0.015910   -10.075112     -9.550554       0.065547       0.000452
 3515   0.015913   -10.080463     -9.553135       0.065547       0.000452
 3516   0.015921   -10.093277     -9.566247       0.065547       0.000452
 3517   0.015926   -10.112053     -9.587599       0.065547       0.000452
 3518   0.015954   -10.120318     -9.594261       0.065547       0.000452
 3519   0.015948   -10.124013     -9.595140       0.065547       0.000452
 3520   0.015945   -10.136575     -9.608509       0.065547       0.000452
 3521   0.015943   -10.148440     -9.621088       0.065547       0.000452
 3522   0.015941   -10.151675     -9.622005       0.065547       0.000452
 3523   0.015939   -10.155389     -9.623914       0.065547       0.000452

-------------------------- File Output Summary --------------------------
Writing comma-separated values (CSV) surface files.
Merging coordinates in the Master node.
Merging solution in the Master node.
Writing SU2 native restart file.
Writing the forces breakdown file.
-------------------------------------------------------------------------

 3524   0.016118   -10.162857     -9.631284       0.065547       0.000452
 3525   0.016114   -10.170715     -9.639182       0.065547       0.000452
 3526   0.016111   -10.176326     -9.643918       0.065547       0.000452
 3527   0.016107   -10.182383     -9.649242       0.065547       0.000452
 3528   0.016105   -10.192138     -9.659457       0.065547       0.000452
 3529   0.016100   -10.203709     -9.671857       0.065547       0.000452
 3530   0.016099   -10.213133     -9.681123       0.065547       0.000452
 3531   0.016095   -10.223306     -9.691256       0.065547       0.000452
 3532   0.016093   -10.238211     -9.707529       0.065547       0.000452
 3533   0.016090   -10.252838     -9.723121       0.065547       0.000452
 3534   0.016088   -10.262236     -9.731573       0.065547       0.000452
 3535   0.016090   -10.278490     -9.749067       0.065547       0.000452
 3536   0.016089   -10.299254     -9.772386       0.065547       0.000452
 3537   0.016084   -10.307398     -9.778488       0.065547       0.000452
 3538   0.016081   -10.321005     -9.792365       0.065547       0.000452
 3539   0.016078   -10.331105     -9.802218       0.065547       0.000452
 3540   0.016075   -10.343215     -9.814196       0.065547       0.000452
 3541   0.016078   -10.384082     -9.866978       0.065547       0.000452
 3542   0.016077   -10.381587     -9.857468       0.065547       0.000452
 3543   0.016076   -10.403912     -9.881318       0.065547       0.000452
 3544   0.016074   -10.431613     -9.915151       0.065547       0.000452
 3545   0.016069   -10.424558     -9.900243       0.065547       0.000452
 3546   0.016065   -10.467943     -9.954104       0.065547       0.000452
 3547   0.016064   -10.488419     -9.975638       0.065547       0.000452
 3548   0.016062   -10.480135     -9.957656       0.065547       0.000452
 3549   0.016060   -10.521644    -10.009969       0.065547       0.000452
 3550   0.016055   -10.531684    -10.016679       0.065547       0.000452
 3551   0.016054   -10.529523    -10.006965       0.065547       0.000452
 3552   0.016053   -10.560909    -10.046193       0.065547       0.000452

---------------------- Local Time Stepping Summary ----------------------
MG level: 0 -> Min. DT: 0.000497804. Max. DT: 3.62864. CFL: 10.
MG level: 1 -> Min. DT: 0.0008. Max. DT: 5.71111. CFL: 8.35917.
MG level: 2 -> Min. DT: 0.00155936. Max. DT: 8.31064. CFL: 7.39444.
-------------------------------------------------------------------------

----------------------- Residual Evolution Summary ----------------------
log10[Maximum residual]: -9.44183.
Maximum residual point 436, located at (0.363662, 0.0609973).
-------------------------------------------------------------------------

 Iter    Time(s)     Res[Rho]     Res[RhoE]      CL(Total)      CD(Total)
 3553   0.016052   -10.563961    -10.044369       0.065547       0.000452
 3554   0.016051   -10.567094    -10.042936       0.065547       0.000452
 3555   0.016051   -10.592418    -10.074325       0.065547       0.000452
 3556   0.016052   -10.593731    -10.070559       0.065547       0.000452
 3557   0.016050   -10.607583    -10.084085       0.065547       0.000452
 3558   0.016049   -10.630675    -10.112038       0.065547       0.000452
 3559   0.016046   -10.623730    -10.097358       0.065547       0.000452
 3560   0.016043   -10.656113    -10.137822       0.065547       0.000452
 3561   0.016041   -10.668967    -10.149099       0.065547       0.000452
 3562   0.016054   -10.664340    -10.137373       0.065547       0.000452
 3563   0.016053   -10.691212    -10.171317       0.065547       0.000452
 3564   0.016066   -10.700747    -10.178541       0.065547       0.000452
 3565   0.016066   -10.719070    -10.197308       0.065547       0.000452
 3566   0.016065   -10.746223    -10.229344       0.065547       0.000452
 3567   0.016062   -10.723099    -10.193376       0.065547       0.000452
 3568   0.016060   -10.756182    -10.236509       0.065547       0.000452
 3569   0.016059   -10.772574    -10.253743       0.065547       0.000452
 3570   0.016057   -10.796177    -10.278482       0.065547       0.000452
 3571   0.016053   -10.807322    -10.288453       0.065547       0.000452
 3572   0.016052   -10.821986    -10.302316       0.065547       0.000452
 3573   0.016050   -10.840072    -10.322144       0.065547       0.000452
 3574   0.016052   -10.844838    -10.323415       0.065547       0.000452
 3575   0.016049   -10.883656    -10.372066       0.065547       0.000452
 3576   0.016048   -10.894413    -10.378368       0.065547       0.000452
 3577   0.016063   -10.922115    -10.409023       0.065547       0.000452
 3578   0.016079   -10.932725    -10.416012       0.065547       0.000452
 3579   0.016077   -10.956777    -10.443587       0.065547       0.000452
 3580   0.016075   -10.976983    -10.464186       0.065547       0.000452
 3581   0.016074   -10.980744    -10.462091       0.065547       0.000452
 3582   0.016072   -10.998606    -10.482720       0.065547       0.000452
 3583   0.016069   -11.009178    -10.492147       0.065547       0.000452
 3584   0.016068   -11.024381    -10.508533       0.065547       0.000452
 3585   0.016065   -11.050458    -10.539327       0.065547       0.000452
 3586   0.016065   -11.061247    -10.546527       0.065547       0.000452
 3587   0.016063   -11.084990    -10.574049       0.065547       0.000452
 3588   0.016060   -11.099251    -10.586623       0.065547       0.000452
 3589   0.016061   -11.119578    -10.608494       0.065547       0.000452
 3590   0.016059   -11.141414    -10.631939       0.065547       0.000452
 3591   0.016059   -11.148861    -10.634665       0.065547       0.000452
 3592   0.016059   -11.171557    -10.661212       0.065547       0.000452

---------------------- Local Time Stepping Summary ----------------------
MG level: 0 -> Min. DT: 0.000497804. Max. DT: 3.62864. CFL: 10.
MG level: 1 -> Min. DT: 0.0008. Max. DT: 5.71111. CFL: 8.35917.
MG level: 2 -> Min. DT: 0.00155936. Max. DT: 8.31064. CFL: 7.39444.
-------------------------------------------------------------------------

----------------------- Residual Evolution Summary ----------------------
log10[Maximum residual]: -10.0446.
Maximum residual point 378, located at (0.3944, 0.0615161).
-------------------------------------------------------------------------

 Iter    Time(s)     Res[Rho]     Res[RhoE]      CL(Total)      CD(Total)
 3593   0.016057   -11.184221    -10.671979       0.065547       0.000452
 3594   0.016056   -11.189416    -10.672459       0.065547       0.000452
 3595   0.016054   -11.207937    -10.694028       0.065547       0.000452
 3596   0.016051   -11.208855    -10.689548       0.065547       0.000452
 3597   0.016049   -11.220195    -10.701078       0.065547       0.000452
 3598   0.016048   -11.253525    -10.745029       0.065547       0.000452
 3599   0.016050   -11.251672    -10.733969       0.065547       0.000452
 3600   0.016049   -11.265314    -10.747437       0.065547       0.000452
 3601   0.016050   -11.300839    -10.794472       0.065547       0.000452
 3602   0.016048   -11.302211    -10.787330       0.065547       0.000452
 3603   0.016050   -11.330197    -10.820107       0.065547       0.000452
 3604   0.016049   -11.356473    -10.850002       0.065547       0.000452
 3605   0.016047   -11.349943    -10.832080       0.065547       0.000452
 3606   0.016047   -11.380780    -10.870500       0.065547       0.000452
 3607   0.016047   -11.402896    -10.894900       0.065547       0.000452
 3608   0.016044   -11.391578    -10.871005       0.065547       0.000452
 3609   0.016041   -11.424345    -10.912537       0.065547       0.000452
 3610   0.016039   -11.449175    -10.941295       0.065547       0.000452
 3611   0.016038   -11.436306    -10.915186       0.065547       0.000452
 3612   0.016036   -11.473398    -10.962491       0.065547       0.000452
 3613   0.016033   -11.500401    -10.993791       0.065547       0.000452
 3614   0.016032   -11.495820    -10.977943       0.065547       0.000452
 3615   0.016030   -11.533277    -11.024585       0.065547       0.000452
 3616   0.016030   -11.554367    -11.045631       0.065547       0.000452
 3617   0.016027   -11.552902    -11.034297       0.065547       0.000452
 3618   0.016026   -11.584771    -11.072980       0.065547       0.000452
 3619   0.016025   -11.596925    -11.082196       0.065547       0.000452
 3620   0.016022   -11.602311    -11.081884       0.065547       0.000452
 3621   0.016023   -11.622798    -11.104467       0.065547       0.000452
 3622   0.016021   -11.650835    -11.137809       0.065547       0.000452
 3623   0.016019   -11.653101    -11.132609       0.065547       0.000452
 3624   0.016017   -11.677565    -11.159891       0.065547       0.000452
 3625   0.016028   -11.701232    -11.186082       0.065547       0.000452
 3626   0.016026   -11.706316    -11.185057       0.065547       0.000452
 3627   0.016039   -11.737937    -11.222640       0.065547       0.000452
 3628   0.016036   -11.770887    -11.261249       0.065547       0.000452
 3629   0.016033   -11.764638    -11.242888       0.065547       0.000452
 3630   0.016031   -11.802849    -11.289908       0.065547       0.000452
 3631   0.016028   -11.832189    -11.322979       0.065547       0.000452
 3632   0.016026   -11.836893    -11.318895       0.065547       0.000452

---------------------- Local Time Stepping Summary ----------------------
MG level: 0 -> Min. DT: 0.000497804. Max. DT: 3.62864. CFL: 10.
MG level: 1 -> Min. DT: 0.0008. Max. DT: 5.71111. CFL: 8.35917.
MG level: 2 -> Min. DT: 0.00155936. Max. DT: 8.31064. CFL: 7.39444.
-------------------------------------------------------------------------

----------------------- Residual Evolution Summary ----------------------
log10[Maximum residual]: -10.7093.
Maximum residual point 436, located at (0.363662, 0.0609973).
-------------------------------------------------------------------------

 Iter    Time(s)     Res[Rho]     Res[RhoE]      CL(Total)      CD(Total)
 3633   0.016025   -11.857970    -11.340243       0.065547       0.000452
 3634   0.016022   -11.877636    -11.360534       0.065547       0.000452
 3635   0.016020   -11.905057    -11.391253       0.065547       0.000452
 3636   0.016017   -11.906538    -11.384514       0.065547       0.000452
 3637   0.016016   -11.937028    -11.420324       0.065547       0.000452
 3638   0.016015   -11.952129    -11.433399       0.065547       0.000452
 3639   0.016013   -11.991310    -11.480733       0.065547       0.000452
 3640   0.016019   -12.004509    -11.488426       0.065547       0.000452
 3641   0.016037   -12.015324    -11.494473       0.065547       0.000452
 3642   0.016035   -12.048586    -11.535446       0.065547       0.000452
 3643   0.016035   -12.071608    -11.558168       0.065547       0.000452
 3644   0.016033   -12.078181    -11.557693       0.065547       0.000452
 3645   0.016032   -12.122147    -11.613194       0.065547       0.000452
 3646   0.016030   -12.126326    -11.609437       0.065547       0.000452
 3647   0.016029   -12.172219    -11.665676       0.065547       0.000452
 3648   0.016028   -12.182167    -11.668579       0.065547       0.000452
 3649   0.016028   -12.203283    -11.688051       0.065547       0.000452
 3650   0.016025   -12.243208    -11.736877       0.065547       0.000452
 3651   0.016023   -12.229499    -11.708606       0.065547       0.000452
 3652   0.016021   -12.267826    -11.756392       0.065547       0.000452

-------------------------- File Output Summary --------------------------
Writing comma-separated values (CSV) surface files.
Merging coordinates in the Master node.
Merging solution in the Master node.
Writing SU2 native restart file.
Writing the forces breakdown file.
-------------------------------------------------------------------------

History file, closed.

------------------------- Solver Postprocessing -------------------------
Deleted CNumerics container.
Deleted CIntegration container.
Deleted CSolver container.
Deleted CIteration container.
Deleted CInterpolator container.
Deleted CTransfer container.
Deleted CGeometry container.
Deleted CFreeFormDefBox class.
Deleted CSurfaceMovement class.
Deleted CVolumetricMovement class.
Deleted CConfig container.
Deleted COutput class.
-------------------------------------------------------------------------

Completed in 6.140827 seconds on 8 cores.

------------------------- Exit Success (SU2_CFD) ------------------------


-------------------------------------------------------------------------
|    ___ _   _ ___                                                      |
|   / __| | | |_  )   Release 5.0.0  "Raven"                            |
|   \__ \ |_| |/ /                                                      |
|   |___/\___//___|   Suite (Solution Exporting Code)                   |
|                                                                       |
-------------------------------------------------------------------------
| SU2 Original Developers: Dr. Francisco D. Palacios.                   |
|                          Dr. Thomas D. Economon.                      |
-------------------------------------------------------------------------
| SU2 Developers:                                                       |
| - Prof. Juan J. Alonso's group at Stanford University.                |
| - Prof. Piero Colonna's group at Delft University of Technology.      |
| - Prof. Nicolas R. Gauger's group at Kaiserslautern U. of Technology. |
| - Prof. Alberto Guardone's group at Polytechnic University of Milan.  |
| - Prof. Rafael Palacios' group at Imperial College London.            |
| - Prof. Edwin van der Weide's group at the University of Twente.      |
| - Prof. Vincent Terrapon's group at the University of Liege.          |
-------------------------------------------------------------------------
| Copyright (C) 2012-2017 SU2, the open-source CFD code.                |
|                                                                       |
| SU2 is free software; you can redistribute it and/or                  |
| modify it under the terms of the GNU Lesser General Public            |
| License as published by the Free Software Foundation; either          |
| version 2.1 of the License, or (at your option) any later version.    |
|                                                                       |
| SU2 is distributed in the hope that it will be useful,                |
| but WITHOUT ANY WARRANTY; without even the implied warranty of        |
| MERCHANTABILITY or FITNESS FOR A PARTICULAR PURPOSE. See the GNU      |
| Lesser General Public License for more details.                       |
|                                                                       |
| You should have received a copy of the GNU Lesser General Public      |
| License along with SU2. If not, see <http://www.gnu.org/licenses/>.   |
-------------------------------------------------------------------------

------------------------ Physical Case Definition -----------------------
Input mesh file name: mesh_NACA0012_inv_deform.su2

-------------------------- Output Information ---------------------------
The output file format is Tecplot ASCII (.dat).
Flow variables file name: flow.

------------------- Config File Boundary Information --------------------
Euler wall boundary marker(s): airfoil.
Far-field boundary marker(s): farfield.

---------------------- Read Grid File Information -----------------------
Two dimensional problem.
5233 points before parallel partitioning.
Performing linear partitioning of the grid nodes.
10216 interior elements before parallel partitioning.
Calling the partitioning functions.
Building the graph adjacency structure.
Distributing elements across all ranks.
2 surface markers.
200 boundary elements in index 0 (Marker = airfoil).
50 boundary elements in index 1 (Marker = farfield).
Calling ParMETIS...
Finished partitioning using ParMETIS (547 edge cuts).
Communicating partition data and creating halo layers.
10763 interior elements including halo cells. 
10763 triangles.
5796 vertices including ghost points. 
Establishing MPI communication patterns.
Identify vertices.

------------------------- Solution Postprocessing -----------------------
Reading and storing the solution from restart_flow.dat.
Merging connectivities in the Master node.
Merging solution in the Master node.
Writing Tecplot ASCII file (volume grid).
Writing Tecplot ASCII file (surface grid).

Completed in 0.104762 seconds on 8 cores.

------------------------- Exit Success (SU2_SOL) ------------------------

