
-------------------------------------------------------------------------
|    ___ _   _ ___                                                      |
|   / __| | | |_  )   Release 5.0.0  "Raven"                            |
|   \__ \ |_| |/ /                                                      |
|   |___/\___//___|   Suite (Computational Fluid Dynamics Code)         |
|                                                                       |
-------------------------------------------------------------------------
| SU2 Original Developers: Dr. Francisco D. Palacios.                   |
|                          Dr. Thomas D. Economon.                      |
-------------------------------------------------------------------------
| SU2 Developers:                                                       |
| - Prof. Juan J. Alonso's group at Stanford University.                |
| - Prof. Piero Colonna's group at Delft University of Technology.      |
| - Prof. Nicolas R. Gauger's group at Kaiserslautern U. of Technology. |
| - Prof. Alberto Guardone's group at Polytechnic University of Milan.  |
| - Prof. Rafael Palacios' group at Imperial College London.            |
| - Prof. Edwin van der Weide's group at the University of Twente.      |
| - Prof. Vincent Terrapon's group at the University of Liege.          |
-------------------------------------------------------------------------
| Copyright (C) 2012-2017 SU2, the open-source CFD code.                |
|                                                                       |
| SU2 is free software; you can redistribute it and/or                  |
| modify it under the terms of the GNU Lesser General Public            |
| License as published by the Free Software Foundation; either          |
| version 2.1 of the License, or (at your option) any later version.    |
|                                                                       |
| SU2 is distributed in the hope that it will be useful,                |
| but WITHOUT ANY WARRANTY; without even the implied warranty of        |
| MERCHANTABILITY or FITNESS FOR A PARTICULAR PURPOSE. See the GNU      |
| Lesser General Public License for more details.                       |
|                                                                       |
| You should have received a copy of the GNU Lesser General Public      |
| License along with SU2. If not, see <http://www.gnu.org/licenses/>.   |
-------------------------------------------------------------------------

------------------------ Physical Case Definition -----------------------
Compressible Euler equations.
Mach number: 0.8.
Angle of attack (AoA): 1.25 deg, and angle of sideslip (AoS): 0 deg.
Read flow solution from: solution_flow.dat.
Non-Dimensional simulation (P=1.0, Rho=1.0, T=1.0 at the farfield).
The reference length/area (force coefficient) is 1.
The reference length (moment computation) is 1.
Reference origin (moment computation) is (0.25, 0, 0).
Surface(s) where the force coefficients are evaluated: airfoil.
Surface(s) plotted in the output file: airfoil.
Surface(s) affected by the design variables: airfoil.
Input mesh file name: mesh_NACA0012_inv_deform.su2

---------------------- Space Numerical Integration ----------------------
Jameson-Schmidt-Turkel scheme for the flow inviscid terms.
JST viscous coefficients (1st, 2nd & 4th): 0.15, 0.5, 0.02.
The method includes a grid stretching correction (p = 0.3).
Second order integration.
Gradient computation using Green-Gauss theorem.

---------------------- Time Numerical Integration -----------------------
Local time stepping (steady state simulation).
Euler implicit method for the flow equations.
V Multigrid Cycle, with 2 multigrid levels.
Damping factor for the residual restriction: 1.
Damping factor for the correction prolongation: 1.
No CFL adaptation.
Multigrid Level:                       0     1     2
Courant-Friedrichs-Lewy number:       10
MG PreSmooth coefficients:             1     2     3
MG PostSmooth coefficients:            0     0     0
MG CorrecSmooth coefficients:          0     0     0

------------------------- Convergence Criteria --------------------------
Maximum number of iterations: 1000.
Reduce the density residual 6 orders of magnitude.
The minimum bound for the density residual is 10^(-10).
Start convergence criteria at iteration 10.

-------------------------- Output Information ---------------------------
Writing a flow solution every 250 iterations.
Writing the convergence history every 1 iterations.
The output file format is Paraview ASCII (.vtk).
Convergence history file name: history_direct.
Forces breakdown file name: forces_breakdown.dat.
Surface flow coefficients file name: surface_flow.
Flow variables file name: flow.
Restart flow file name: restart_flow.dat.

------------------- Config File Boundary Information --------------------
Euler wall boundary marker(s): airfoil.
Far-field boundary marker(s): farfield.

---------------------- Read Grid File Information -----------------------
Two dimensional problem.
5233 points.
2 surface markers.
200 boundary elements in index 0 (Marker = airfoil).
50 boundary elements in index 1 (Marker = farfield).
10216 triangles.

------------------------- Geometry Preprocessing ------------------------
Setting point connectivity.
Renumbering points (Reverse Cuthill McKee Ordering).
Recomputing point connectivity.
Setting element connectivity.
Checking the numerical grid orientation.
Identifying edges and vertices.
Computing centers of gravity.
Setting the control volume structure.
Area of the computational grid: 1.25e+03.
Searching for the closest normal neighbors to the surfaces.
Compute the surface curvature.
Max K: 7.84e+03. Mean K: 35.6. Standard deviation K: 494.
Checking for periodicity.
Setting the multigrid structure.
MG level: 0 -> CVs: 5233. Agglomeration rate 1/1.00. CFL 10.
MG level: 1 -> CVs: 1533. Agglomeration rate 1/3.41. CFL 8.12.
MG level: 2 -> CVs: 443. Agglomeration rate 1/3.46. CFL 6.55.
Computing wall distances.
Wetted area = 2.03 m.
Area projection in the x-plane = 0.107 m, y-plane = 1 m.

------------------------- Driver information --------------------------
A Fluid driver has been instantiated.

------------------------ Iteration Preprocessing ------------------------
Zone 1: Euler/Navier-Stokes/RANS flow iteration.

------------------------- Solver Preprocessing --------------------------
Inviscid flow: Computing density based on free-stream
temperature and pressure using the ideal gas law.
Force coefficients computed using free-stream values.
-- Input conditions:
Fluid Model: STANDARD_AIR 
Specific gas constant: 287.058 N.m/kg.K.
Specific gas constant (non-dim): 1
Specific Heat Ratio: 1.4
Free-stream static pressure: 101325 Pa.
Free-stream total pressure: 154454 Pa.
Free-stream temperature: 288.15 K.
Free-stream density: 1.22498 kg/m^3.
Free-stream velocity: (272.173, 5.93883) m/s. Magnitude: 272.238 m/s (529.186 KTS).
Free-stream total energy per unit mass: 243846 m^2/s^2.
-- Reference values:
Reference specific gas constant: 287.058 N.m/kg.K.
Reference pressure: 101325 Pa.
Reference temperature: 288.15 K.
Reference density: 1.22498 kg/m^3.
Reference velocity: 287.603 m/s.
Reference energy per unit mass: 82715.8 m^2/s^2.
-- Resulting non-dimensional state:
Mach number (non-dim): 0.8
Specific gas constant (non-dim): 1
Free-stream temperature (non-dim): 1
Free-stream pressure (non-dim): 1
Free-stream density (non-dim): 1
Free-stream velocity (non-dim): (0.946348, 0.0206494). Magnitude: 0.946573
Free-stream total energy per unit mass (non-dim): 2.948

Initialize Jacobian structure (Euler). MG level: 0.
Initialize Jacobian structure (Euler). MG level: 1.
Initialize Jacobian structure (Euler). MG level: 2.

----------------- Integration and Numerics Preprocessing ----------------
Integration Preprocessing.
Numerics Preprocessing.

------------------------------ Begin Solver -----------------------------

---------------------- Local Time Stepping Summary ----------------------
MG level: 0 -> Min. DT: 0.000497739. Max. DT: 3.62867. CFL: 10.
MG level: 1 -> Min. DT: 0.000784188. Max. DT: 5.54679. CFL: 8.11871.
MG level: 2 -> Min. DT: 0.00104836. Max. DT: 7.41452. CFL: 6.5465.
-------------------------------------------------------------------------

----------------------- Residual Evolution Summary ----------------------
log10[Maximum residual]: -4.24086.
Maximum residual point 148, located at (0.48027, 0.0469489).
-------------------------------------------------------------------------

 Iter    Time(s)     Res[Rho]     Res[RhoE]      CL(Total)      CD(Total)
 1907   0.059824    -5.392118     -4.795738       0.074983       0.000805
 1908   0.058414    -5.399929     -4.803356       0.075505       0.000683
 1909   0.056556    -5.481093     -4.889039       0.075858       0.000770
 1910   0.056971    -5.486961     -4.892711       0.076156       0.000770
 1911   0.055813    -5.471230     -4.884216       0.076490       0.000741
 1912   0.056393    -5.476694     -4.900978       0.076764       0.000774
 1913   0.056178    -5.435958     -4.856521       0.077072       0.000718
 1914   0.056217    -5.470293     -4.905278       0.077337       0.000747
 1915   0.055639    -5.492500     -4.938457       0.077620       0.000729
 1916   0.055552    -5.503009     -4.949051       0.077883       0.000722
 1917   0.055118    -5.520799     -4.969754       0.078119       0.000716
 1918   0.054867    -5.531479     -4.983454       0.078337       0.000710
 1919   0.054565    -5.556627     -5.015755       0.078545       0.000696
 1920   0.054441    -5.569227     -5.030858       0.078733       0.000679
 1921   0.054043    -5.575389     -5.037773       0.078902       0.000657
 1922   0.053718    -5.576624     -5.039179       0.079050       0.000636
 1923   0.053411    -5.579357     -5.043438       0.079179       0.000613
 1924   0.053150    -5.593633     -5.064545       0.079297       0.000599
 1925   0.053045    -5.608246     -5.085043       0.079409       0.000589
 1926   0.052953    -5.609740     -5.084566       0.079505       0.000570
 1927   0.052742    -5.595548     -5.063657       0.079573       0.000556
 1928   0.052541    -5.583383     -5.048018       0.079621       0.000543
 1929   0.052409    -5.583451     -5.049958       0.079660       0.000532
 1930   0.052269    -5.591256     -5.062225       0.079691       0.000523
 1931   0.052218    -5.598341     -5.072707       0.079716       0.000520
 1932   0.052313    -5.586888     -5.056594       0.079743       0.000510
 1933   0.052252    -5.577097     -5.047992       0.079740       0.000518
 1934   0.052146    -5.564646     -5.033062       0.079750       0.000515
 1935   0.052042    -5.540443     -5.001153       0.079749       0.000517
 1936   0.051937    -5.524815     -4.981536       0.079743       0.000519
 1937   0.051824    -5.515831     -4.971137       0.079735       0.000521
 1938   0.051760    -5.511850     -4.966957       0.079723       0.000523
 1939   0.051742    -5.514744     -4.971391       0.079709       0.000523
 1940   0.051823    -5.519916     -4.978290       0.079693       0.000524
 1941   0.051749    -5.527838     -4.988507       0.079674       0.000523
 1942   0.051762    -5.538107     -5.001658       0.079652       0.000522
 1943   0.051725    -5.550910     -5.018019       0.079628       0.000520
 1944   0.051641    -5.566428     -5.037838       0.079602       0.000518
 1945   0.051647    -5.583990     -5.060210       0.079574       0.000516
 1946   0.051574    -5.601605     -5.082401       0.079545       0.000514

---------------------- Local Time Stepping Summary ----------------------
MG level: 0 -> Min. DT: 0.000497786. Max. DT: 3.62867. CFL: 10.
MG level: 1 -> Min. DT: 0.000784258. Max. DT: 5.54675. CFL: 8.11871.
MG level: 2 -> Min. DT: 0.00104841. Max. DT: 7.41448. CFL: 6.5465.
-------------------------------------------------------------------------

----------------------- Residual Evolution Summary ----------------------
log10[Maximum residual]: -4.53484.
Maximum residual point 357, located at (0.520327, 0.0602929).
-------------------------------------------------------------------------

 Iter    Time(s)     Res[Rho]     Res[RhoE]      CL(Total)      CD(Total)
 1947   0.051501    -5.616910     -5.101134       0.079516       0.000514
 1948   0.051445    -5.628965     -5.115260       0.079487       0.000513
 1949   0.051370    -5.638408     -5.125937       0.079460       0.000512
 1950   0.051291    -5.646137     -5.134441       0.079434       0.000511
 1951   0.051253    -5.652838     -5.141587       0.079411       0.000510
 1952   0.051367    -5.659183     -5.148232       0.079389       0.000510
 1953   0.051362    -5.665925     -5.155427       0.079369       0.000509
 1954   0.051318    -5.673830     -5.164209       0.079351       0.000509
 1955   0.051262    -5.683266     -5.174982       0.079334       0.000510
 1956   0.051203    -5.693212     -5.186005       0.079321       0.000507
 1957   0.051144    -5.702587     -5.196034       0.079305       0.000511
 1958   0.051099    -5.709820     -5.201984       0.079295       0.000511
 1959   0.051071    -5.711089     -5.199401       0.079285       0.000511
 1960   0.051086    -5.712489     -5.197956       0.079277       0.000512
 1961   0.051039    -5.713775     -5.196892       0.079271       0.000512
 1962   0.051075    -5.719088     -5.201844       0.079267       0.000512
 1963   0.051029    -5.727882     -5.211523       0.079265       0.000512
 1964   0.051018    -5.739961     -5.225447       0.079264       0.000512
 1965   0.050996    -5.754688     -5.242646       0.079265       0.000512
 1966   0.050960    -5.770588     -5.260991       0.079268       0.000512
 1967   0.050916    -5.786658     -5.279095       0.079272       0.000512
 1968   0.050879    -5.801925     -5.295686       0.079277       0.000512
 1969   0.050846    -5.816300     -5.310883       0.079282       0.000512
 1970   0.050819    -5.830278     -5.325531       0.079289       0.000513
 1971   0.050786    -5.844533     -5.340583       0.079296       0.000513
 1972   0.050808    -5.859573     -5.356742       0.079303       0.000513
 1973   0.050804    -5.875586     -5.374185       0.079310       0.000512
 1974   0.050788    -5.890194     -5.388969       0.079315       0.000517
 1975   0.050751    -5.908026     -5.409022       0.079326       0.000508
 1976   0.050717    -5.906741     -5.398419       0.079325       0.000517
 1977   0.050699    -5.915578     -5.408287       0.079333       0.000514
 1978   0.050670    -5.941628     -5.442277       0.079339       0.000513
 1979   0.050693    -5.954485     -5.452343       0.079342       0.000513
 1980   0.050685    -5.960858     -5.452558       0.079344       0.000513
 1981   0.050723    -5.967296     -5.454353       0.079346       0.000512
 1982   0.050781    -5.975324     -5.459814       0.079347       0.000512
 1983   0.050771    -5.987289     -5.471094       0.079347       0.000512
 1984   0.050755    -6.002309     -5.486583       0.079346       0.000512
 1985   0.050764    -6.020143     -5.505718       0.079344       0.000511
 1986   0.050734    -6.040196     -5.527590       0.079341       0.000511

---------------------- Local Time Stepping Summary ----------------------
MG level: 0 -> Min. DT: 0.000497758. Max. DT: 3.62867. CFL: 10.
MG level: 1 -> Min. DT: 0.000784237. Max. DT: 5.54675. CFL: 8.11871.
MG level: 2 -> Min. DT: 0.00104839. Max. DT: 7.41448. CFL: 6.5465.
-------------------------------------------------------------------------

----------------------- Residual Evolution Summary ----------------------
log10[Maximum residual]: -4.98336.
Maximum residual point 732, located at (0.410237, 0.0950664).
-------------------------------------------------------------------------

 Iter    Time(s)     Res[Rho]     Res[RhoE]      CL(Total)      CD(Total)
 1987   0.050710    -6.062429     -5.552114       0.079338       0.000511
 1988   0.050705    -6.085634     -5.577491       0.079334       0.000511
 1989   0.050711    -6.109118     -5.602775       0.079329       0.000510
 1990   0.050699    -6.132165     -5.627075       0.079324       0.000510
 1991   0.050698    -6.154652     -5.650395       0.079320       0.000509
 1992   0.050737    -6.176986     -5.673448       0.079315       0.000509
 1993   0.050830    -6.199597     -5.696851       0.079311       0.000509
 1994   0.050811    -6.222228     -5.720129       0.079308       0.000509
 1995   0.050795    -6.240554     -5.736643       0.079305       0.000505
 1996   0.050768    -6.258980     -5.756897       0.079300       0.000511
 1997   0.050746    -6.278346     -5.775400       0.079301       0.000506
 1998   0.050724    -6.295588     -5.792821       0.079297       0.000507
 1999   0.050709    -6.310229     -5.804419       0.079295       0.000507
 2000   0.050770    -6.325469     -5.817642       0.079294       0.000508
 2001   0.050926    -6.330535     -5.817035       0.079293       0.000508
 2002   0.050978    -6.334324     -5.814900       0.079293       0.000508
 2003   0.051044    -6.347070     -5.825320       0.079293       0.000508
 2004   0.051052    -6.363119     -5.840415       0.079294       0.000508
 2005   0.051134    -6.385393     -5.864164       0.079295       0.000508
 2006   0.051159    -6.411303     -5.892625       0.079296       0.000508
 2007   0.051168    -6.437958     -5.921606       0.079298       0.000508
 2008   0.051153    -6.461742     -5.945958       0.079299       0.000508
 2009   0.051134    -6.480503     -5.963082       0.079301       0.000508
 2010   0.051116    -6.495057     -5.974739       0.079304       0.000508
 2011   0.051164    -6.508137     -5.984843       0.079306       0.000508
 2012   0.051174    -6.521555     -5.995828       0.079308       0.000508
 2013   0.051152    -6.536927     -6.009846       0.079311       0.000508
 2014   0.051132    -6.555019     -6.027798       0.079314       0.000508
 2015   0.051118    -6.575602     -6.049163       0.079316       0.000508
 2016   0.051099    -6.598082     -6.072975       0.079319       0.000508
 2017   0.051085    -6.621640     -6.098030       0.079322       0.000508
 2018   0.051082    -6.645567     -6.123338       0.079325       0.000508
 2019   0.051071    -6.669375     -6.148271       0.079328       0.000508
 2020   0.051071    -6.692795     -6.172522       0.079330       0.000508
 2021   0.051070    -6.715646     -6.195919       0.079333       0.000508
 2022   0.051072    -6.737860     -6.218441       0.079336       0.000508
 2023   0.051048    -6.759496     -6.240229       0.079339       0.000508
 2024   0.051047    -6.780758     -6.261610       0.079341       0.000508
 2025   0.051034    -6.802050     -6.283159       0.079344       0.000508
 2026   0.051011    -6.823825     -6.305493       0.079347       0.000508

---------------------- Local Time Stepping Summary ----------------------
MG level: 0 -> Min. DT: 0.000497758. Max. DT: 3.62867. CFL: 10.
MG level: 1 -> Min. DT: 0.000784233. Max. DT: 5.54675. CFL: 8.11871.
MG level: 2 -> Min. DT: 0.0010484. Max. DT: 7.41448. CFL: 6.5465.
-------------------------------------------------------------------------

----------------------- Residual Evolution Summary ----------------------
log10[Maximum residual]: -5.61135.
Maximum residual point 407, located at (0.551932, 0.059104).
-------------------------------------------------------------------------

 Iter    Time(s)     Res[Rho]     Res[RhoE]      CL(Total)      CD(Total)
 2027   0.050992    -6.846498     -6.329156       0.079349       0.000508
 2028   0.050986    -6.870250     -6.354324       0.079351       0.000508
 2029   0.050965    -6.894973     -6.380771       0.079354       0.000508
 2030   0.050985    -6.920396     -6.408068       0.079356       0.000508
 2031   0.051020    -6.946155     -6.435696       0.079358       0.000508
 2032   0.051022    -6.971952     -6.463230       0.079360       0.000508
 2033   0.051006    -6.997478     -6.490267       0.079361       0.000508
 2034   0.050989    -7.022523     -6.516572       0.079363       0.000508
 2035   0.050966    -7.046914     -6.541958       0.079365       0.000508
 2036   0.050946    -7.070503     -6.566257       0.079366       0.000508
 2037   0.050937    -7.093427     -6.589728       0.079367       0.000507
 2038   0.050926    -7.116193     -6.613156       0.079369       0.000507
 2039   0.050932    -7.139455     -6.637472       0.079370       0.000507
 2040   0.050923    -7.163372     -6.662774       0.079371       0.000507
 2041   0.050912    -7.187407     -6.688063       0.079372       0.000507
 2042   0.050914    -7.210255     -6.711311       0.079373       0.000507
 2043   0.050912    -7.230658     -6.730819       0.079374       0.000507
 2044   0.050909    -7.248104     -6.746158       0.079374       0.000507
 2045   0.050899    -7.263033     -6.758258       0.079375       0.000507
 2046   0.050880    -7.276132     -6.768251       0.079376       0.000507
 2047   0.050860    -7.288025     -6.777026       0.079376       0.000507
 2048   0.050865    -7.299419     -6.785490       0.079377       0.000507
 2049   0.050846    -7.310844     -6.794266       0.079378       0.000507
 2050   0.050841    -7.322498     -6.803517       0.079379       0.000507
 2051   0.050857    -7.334332     -6.813095       0.079379       0.000507
 2052   0.050851    -7.346177     -6.822737       0.079380       0.000507
 2053   0.050837    -7.357872     -6.832231       0.079381       0.000507
 2054   0.050823    -7.369297     -6.841434       0.079382       0.000507
 2055   0.050813    -7.380425     -6.850337       0.079383       0.000507
 2056   0.050796    -7.391308     -6.859027       0.079383       0.000507
 2057   0.050782    -7.402059     -6.867666       0.079384       0.000507
 2058   0.050785    -7.412838     -6.876469       0.079385       0.000507
 2059   0.050773    -7.423812     -6.885650       0.079386       0.000507
 2060   0.050772    -7.435133     -6.895401       0.079387       0.000507
 2061   0.050797    -7.446912     -6.905850       0.079387       0.000507
 2062   0.050787    -7.459216     -6.917077       0.079388       0.000507
 2063   0.050791    -7.472069     -6.929094       0.079389       0.000507
 2064   0.050778    -7.485409     -6.941811       0.079390       0.000507
 2065   0.050770    -7.499154     -6.955113       0.079391       0.000507
 2066   0.050755    -7.513208     -6.968877       0.079392       0.000507

---------------------- Local Time Stepping Summary ----------------------
MG level: 0 -> Min. DT: 0.000497745. Max. DT: 3.62867. CFL: 10.
MG level: 1 -> Min. DT: 0.000784229. Max. DT: 5.54675. CFL: 8.11871.
MG level: 2 -> Min. DT: 0.0010484. Max. DT: 7.41448. CFL: 6.5465.
-------------------------------------------------------------------------

----------------------- Residual Evolution Summary ----------------------
log10[Maximum residual]: -6.40516.
Maximum residual point 357, located at (0.520327, 0.0602929).
-------------------------------------------------------------------------

 Iter    Time(s)     Res[Rho]     Res[RhoE]      CL(Total)      CD(Total)
 2067   0.050738    -7.527482     -6.982986       0.079392       0.000507
 2068   0.050725    -7.541873     -6.997304       0.079393       0.000507
 2069   0.050722    -7.556283     -7.011703       0.079394       0.000507
 2070   0.050728    -7.570623     -7.026075       0.079395       0.000507
 2071   0.050784    -7.584844     -7.040359       0.079395       0.000507
 2072   0.050799    -7.598948     -7.054560       0.079396       0.000507
 2073   0.050909    -7.612967     -7.068723       0.079397       0.000507
 2074   0.050912    -7.626945     -7.082901       0.079398       0.000507
 2075   0.050902    -7.640934     -7.097164       0.079398       0.000507
 2076   0.050891    -7.654990     -7.111578       0.079399       0.000507
 2077   0.050887    -7.669158     -7.126196       0.079400       0.000507
 2078   0.050898    -7.683470     -7.141051       0.079400       0.000507
 2079   0.050905    -7.697953     -7.156164       0.079401       0.000507
 2080   0.050902    -7.712620     -7.171548       0.079402       0.000507
 2081   0.050890    -7.727478     -7.187201       0.079403       0.000507
 2082   0.050879    -7.742533     -7.203125       0.079403       0.000507
 2083   0.050871    -7.757798     -7.219328       0.079404       0.000507
 2084   0.050870    -7.773285     -7.235821       0.079404       0.000507
 2085   0.050854    -7.789017     -7.252625       0.079405       0.000507
 2086   0.050840    -7.805022     -7.269767       0.079406       0.000507
 2087   0.050826    -7.821331     -7.287282       0.079406       0.000507
 2088   0.050812    -7.837981     -7.305210       0.079407       0.000507
 2089   0.050800    -7.855010     -7.323592       0.079407       0.000507
 2090   0.050813    -7.872450     -7.342464       0.079408       0.000507
 2091   0.050824    -7.890340     -7.361868       0.079408       0.000507
 2092   0.050816    -7.908720     -7.381842       0.079409       0.000507
 2093   0.050805    -7.927616     -7.402413       0.079409       0.000507
 2094   0.050791    -7.947052     -7.423600       0.079410       0.000507
 2095   0.050780    -7.967049     -7.445420       0.079410       0.000507
 2096   0.050770    -7.987612     -7.467857       0.079411       0.000507
 2097   0.050761    -8.008738     -7.490889       0.079411       0.000507
 2098   0.050752    -8.030417     -7.514479       0.079412       0.000507
 2099   0.050805    -8.052628     -7.538580       0.079412       0.000507
 2100   0.050891    -8.075325     -7.563104       0.079413       0.000507
 2101   0.050928    -8.098448     -7.587946       0.079413       0.000507
 2102   0.050917    -8.121930     -7.612998       0.079413       0.000507
 2103   0.050906    -8.145703     -7.638152       0.079414       0.000507
 2104   0.050922    -8.169673     -7.663270       0.079414       0.000507
 2105   0.050930    -8.193701     -7.688149       0.079414       0.000507
 2106   0.050942    -8.217582     -7.712507       0.079415       0.000507

---------------------- Local Time Stepping Summary ----------------------
MG level: 0 -> Min. DT: 0.000497738. Max. DT: 3.62867. CFL: 10.
MG level: 1 -> Min. DT: 0.000784227. Max. DT: 5.54675. CFL: 8.11871.
MG level: 2 -> Min. DT: 0.0010484. Max. DT: 7.41448. CFL: 6.5465.
-------------------------------------------------------------------------

----------------------- Residual Evolution Summary ----------------------
log10[Maximum residual]: -7.12034.
Maximum residual point 494, located at (0.325804, 0.0751809).
-------------------------------------------------------------------------

 Iter    Time(s)     Res[Rho]     Res[RhoE]      CL(Total)      CD(Total)
 2107   0.050946    -8.241052     -7.735998       0.079415       0.000507
 2108   0.050952    -8.263811     -7.758258       0.079415       0.000507
 2109   0.051005    -8.285577     -7.779001       0.079416       0.000507
 2110   0.051021    -8.306185     -7.798155       0.079416       0.000507
 2111   0.051014    -8.325694     -7.815989       0.079416       0.000507
 2112   0.051002    -8.344467     -7.833164       0.079416       0.000507
 2113   0.050991    -8.363133     -7.850630       0.079417       0.000507
 2114   0.050993    -8.382537     -7.869538       0.079417       0.000507
 2115   0.050983    -8.403704     -7.891177       0.079417       0.000507
 2116   0.050978    -8.427528     -7.916529       0.079417       0.000507
 2117   0.050977    -8.453290     -7.944095       0.079417       0.000507
 2118   0.050970    -8.476325     -7.966921       0.079418       0.000507
 2119   0.050968    -8.495364     -7.984071       0.079418       0.000507
 2120   0.050964    -8.514090     -8.001743       0.079418       0.000507
 2121   0.050952    -8.531413     -8.018125       0.079418       0.000507
 2122   0.050953    -8.549437     -8.036043       0.079418       0.000507
 2123   0.050950    -8.567154     -8.053823       0.079418       0.000507
 2124   0.050940    -8.584713     -8.071706       0.079419       0.000507
 2125   0.050929    -8.601731     -8.089117       0.079419       0.000507
 2126   0.050918    -8.619099     -8.107325       0.079419       0.000507
 2127   0.050906    -8.636719     -8.126000       0.079419       0.000507
 2128   0.050896    -8.655162     -8.145857       0.079419       0.000507
 2129   0.050900    -8.673760     -8.165779       0.079419       0.000507
 2130   0.050907    -8.692637     -8.185973       0.079419       0.000507
 2131   0.050900    -8.711171     -8.205515       0.079419       0.000507
 2132   0.050888    -8.729538     -8.224742       0.079419       0.000507
 2133   0.050876    -8.747361     -8.243089       0.079419       0.000507
 2134   0.050865    -8.765025     -8.261196       0.079420       0.000507
 2135   0.050867    -8.782503     -8.279013       0.079420       0.000507
 2136   0.050860    -8.800459     -8.297540       0.079420       0.000507
 2137   0.050857    -8.818961     -8.316775       0.079420       0.000507
 2138   0.050847    -8.838363     -8.337159       0.079420       0.000507
 2139   0.050845    -8.858290     -8.357973       0.079420       0.000507
 2140   0.050856    -8.878479     -8.378773       0.079420       0.000507
 2141   0.050845    -8.898291     -8.398619       0.079420       0.000507
 2142   0.050835    -8.917427     -8.417227       0.079420       0.000507
 2143   0.050826    -8.935620     -8.434357       0.079420       0.000507
 2144   0.050830    -8.952812     -8.450042       0.079420       0.000507
 2145   0.050819    -8.968243     -8.463182       0.079420       0.000507
 2146   0.050810    -8.981213     -8.472943       0.079420       0.000507

---------------------- Local Time Stepping Summary ----------------------
MG level: 0 -> Min. DT: 0.000497738. Max. DT: 3.62867. CFL: 10.
MG level: 1 -> Min. DT: 0.000784227. Max. DT: 5.54675. CFL: 8.11871.
MG level: 2 -> Min. DT: 0.0010484. Max. DT: 7.41448. CFL: 6.5465.
-------------------------------------------------------------------------

----------------------- Residual Evolution Summary ----------------------
log10[Maximum residual]: -7.91187.
Maximum residual point 357, located at (0.520327, 0.0602929).
-------------------------------------------------------------------------

 Iter    Time(s)     Res[Rho]     Res[RhoE]      CL(Total)      CD(Total)
 2147   0.050801    -8.991918     -8.479954       0.079420       0.000507
 2148   0.050805    -9.001830     -8.486544       0.079420       0.000507
 2149   0.050819    -9.012439     -8.494722       0.079420       0.000507
 2150   0.050835    -9.024807     -8.505695       0.079420       0.000507
 2151   0.050831    -9.039386     -8.519784       0.079420       0.000507
 2152   0.050825    -9.056199     -8.536803       0.079420       0.000507
 2153   0.050816    -9.075017     -8.556310       0.079420       0.000507
 2154   0.050806    -9.095454     -8.577718       0.079420       0.000507
 2155   0.050801    -9.116934     -8.600219       0.079420       0.000507
 2156   0.050791    -9.138704     -8.622795       0.079420       0.000507
 2157   0.050785    -9.159966     -8.644430       0.079420       0.000507

-------------------------- File Output Summary --------------------------
Writing comma-separated values (CSV) surface files.
Merging connectivities in the Master node.
Merging coordinates in the Master node.
Merging solution in the Master node.
Writing SU2 native restart file.
Writing Paraview ASCII volume solution file.
Writing Paraview ASCII surface solution file.
Writing the forces breakdown file.
-------------------------------------------------------------------------

 2158   0.051046    -9.180080     -8.664374       0.079420       0.000507
 2159   0.051039    -9.198720     -8.682333       0.079420       0.000507
 2160   0.051029    -9.215927     -8.698491       0.079420       0.000507
 2161   0.051019    -9.232062     -8.713427       0.079420       0.000507
 2162   0.051009    -9.247674     -8.727912       0.079420       0.000507
 2163   0.051002    -9.263340     -8.742709       0.079420       0.000507
 2164   0.050990    -9.279551     -8.758422       0.079420       0.000507
 2165   0.050981    -9.296644     -8.775436       0.079420       0.000507
 2166   0.050974    -9.314784     -8.793894       0.079420       0.000507
 2167   0.050966    -9.333964     -8.813719       0.079420       0.000507
 2168   0.050972    -9.354026     -8.834642       0.079420       0.000507
 2169   0.050994    -9.374700     -8.856261       0.079420       0.000507
 2170   0.051067    -9.395658     -8.878111       0.079420       0.000507
 2171   0.051094    -9.416575     -8.899760       0.079420       0.000507
 2172   0.051083    -9.437198     -8.920889       0.079420       0.000507
 2173   0.051077    -9.457403     -8.941371       0.079420       0.000507
 2174   0.051074    -9.477215     -8.961287       0.079420       0.000507
 2175   0.051068    -9.496804     -8.980910       0.079420       0.000507
 2176   0.051066    -9.516444     -9.000637       0.079420       0.000507
 2177   0.051087    -9.536448     -9.020896       0.079420       0.000507
 2178   0.051097    -9.557108     -9.042062       0.079420       0.000507
 2179   0.051092    -9.578640     -9.064391       0.079420       0.000507
 2180   0.051091    -9.601156     -9.087980       0.079420       0.000507
 2181   0.051093    -9.624646     -9.112765       0.079420       0.000507
 2182   0.051088    -9.648991     -9.138535       0.079420       0.000507
 2183   0.051077    -9.673976     -9.164964       0.079420       0.000507
 2184   0.051071    -9.699316     -9.191652       0.079420       0.000507
 2185   0.051064    -9.724665     -9.218136       0.079420       0.000507
 2186   0.051058    -9.749555     -9.243791       0.079420       0.000507

---------------------- Local Time Stepping Summary ----------------------
MG level: 0 -> Min. DT: 0.000497738. Max. DT: 3.62867. CFL: 10.
MG level: 1 -> Min. DT: 0.000784227. Max. DT: 5.54675. CFL: 8.11871.
MG level: 2 -> Min. DT: 0.0010484. Max. DT: 7.41448. CFL: 6.5465.
-------------------------------------------------------------------------

----------------------- Residual Evolution Summary ----------------------
log10[Maximum residual]: -8.69165.
Maximum residual point 710, located at (0.317891, 0.0915385).
-------------------------------------------------------------------------

 Iter    Time(s)     Res[Rho]     Res[RhoE]      CL(Total)      CD(Total)
 2187   0.051060    -9.772835     -9.266957       0.079420       0.000507
 2188   0.051059    -9.789938     -9.281524       0.079420       0.000507
 2189   0.051052    -9.803417     -9.291683       0.079420       0.000507
 2190   0.051045    -9.822772     -9.312772       0.079420       0.000507
 2191   0.051039    -9.845374     -9.337095       0.079420       0.000507
 2192   0.051041    -9.865691     -9.356675       0.079420       0.000507
 2193   0.051034    -9.880212     -9.367714       0.079420       0.000507
 2194   0.051028    -9.886886     -9.368885       0.079420       0.000507
 2195   0.051029    -9.897130     -9.376937       0.079420       0.000507
 2196   0.051070    -9.909712     -9.388820       0.079420       0.000507
 2197   0.051102    -9.920865     -9.398407       0.079420       0.000507
 2198   0.051148    -9.931906     -9.407751       0.079420       0.000507
 2199   0.051151    -9.943528     -9.418045       0.079420       0.000507
 2200   0.051153    -9.955320     -9.428636       0.079420       0.000507
 2201   0.051193    -9.967244     -9.439401       0.079420       0.000507
 2202   0.051255    -9.979559     -9.450704       0.079420       0.000507
 2203   0.051253    -9.992317     -9.462623       0.079420       0.000507
 2204   0.051243   -10.005537     -9.475169       0.079420       0.000507

-------------------------- File Output Summary --------------------------
Writing comma-separated values (CSV) surface files.
Merging connectivities in the Master node.
Merging coordinates in the Master node.
Merging solution in the Master node.
Writing SU2 native restart file.
Writing Paraview ASCII volume solution file.
Writing Paraview ASCII surface solution file.
Writing the forces breakdown file.
-------------------------------------------------------------------------

History file, closed.

------------------------- Solver Postprocessing -------------------------
Deleted CNumerics container.
Deleted CIntegration container.
Deleted CSolver container.
Deleted CIteration container.
Deleted CInterpolator container.
Deleted CTransfer container.
Deleted CGeometry container.
Deleted CFreeFormDefBox class.
Deleted CSurfaceMovement class.
Deleted CVolumetricMovement class.
Deleted CConfig container.
Deleted COutput class.
-------------------------------------------------------------------------

Completed in 15.355486 seconds on 1 core.

------------------------- Exit Success (SU2_CFD) ------------------------

