
-------------------------------------------------------------------------
|    ___ _   _ ___                                                      |
|   / __| | | |_  )   Release 5.0.0  "Raven"                            |
|   \__ \ |_| |/ /                                                      |
|   |___/\___//___|   Suite (Computational Fluid Dynamics Code)         |
|                                                                       |
-------------------------------------------------------------------------
| SU2 Original Developers: Dr. Francisco D. Palacios.                   |
|                          Dr. Thomas D. Economon.                      |
-------------------------------------------------------------------------
| SU2 Developers:                                                       |
| - Prof. Juan J. Alonso's group at Stanford University.                |
| - Prof. Piero Colonna's group at Delft University of Technology.      |
| - Prof. Nicolas R. Gauger's group at Kaiserslautern U. of Technology. |
| - Prof. Alberto Guardone's group at Polytechnic University of Milan.  |
| - Prof. Rafael Palacios' group at Imperial College London.            |
| - Prof. Edwin van der Weide's group at the University of Twente.      |
| - Prof. Vincent Terrapon's group at the University of Liege.          |
-------------------------------------------------------------------------
| Copyright (C) 2012-2017 SU2, the open-source CFD code.                |
|                                                                       |
| SU2 is free software; you can redistribute it and/or                  |
| modify it under the terms of the GNU Lesser General Public            |
| License as published by the Free Software Foundation; either          |
| version 2.1 of the License, or (at your option) any later version.    |
|                                                                       |
| SU2 is distributed in the hope that it will be useful,                |
| but WITHOUT ANY WARRANTY; without even the implied warranty of        |
| MERCHANTABILITY or FITNESS FOR A PARTICULAR PURPOSE. See the GNU      |
| Lesser General Public License for more details.                       |
|                                                                       |
| You should have received a copy of the GNU Lesser General Public      |
| License along with SU2. If not, see <http://www.gnu.org/licenses/>.   |
-------------------------------------------------------------------------

------------------------ Physical Case Definition -----------------------
Compressible Euler equations.
Mach number: 0.8.
Angle of attack (AoA): 1.25 deg, and angle of sideslip (AoS): 0 deg.
Read flow solution from: solution_flow.dat.
Non-Dimensional simulation (P=1.0, Rho=1.0, T=1.0 at the farfield).
The reference length/area (force coefficient) is 1.
The reference length (moment computation) is 1.
Reference origin (moment computation) is (0.25, 0, 0).
Surface(s) where the force coefficients are evaluated: airfoil.
Surface(s) plotted in the output file: airfoil.
Surface(s) affected by the design variables: airfoil.
Input mesh file name: mesh_NACA0012_inv_deform.su2

---------------------- Space Numerical Integration ----------------------
Jameson-Schmidt-Turkel scheme for the flow inviscid terms.
JST viscous coefficients (1st, 2nd & 4th): 0.15, 0.5, 0.02.
The method includes a grid stretching correction (p = 0.3).
Second order integration.
Gradient computation using Green-Gauss theorem.

---------------------- Time Numerical Integration -----------------------
Local time stepping (steady state simulation).
Euler implicit method for the flow equations.
V Multigrid Cycle, with 2 multigrid levels.
Damping factor for the residual restriction: 1.
Damping factor for the correction prolongation: 1.
No CFL adaptation.
Multigrid Level:                       0     1     2
Courant-Friedrichs-Lewy number:       10
MG PreSmooth coefficients:             1     2     3
MG PostSmooth coefficients:            0     0     0
MG CorrecSmooth coefficients:          0     0     0

------------------------- Convergence Criteria --------------------------
Maximum number of iterations: 1000.
Reduce the density residual 6 orders of magnitude.
The minimum bound for the density residual is 10^(-13).
Start convergence criteria at iteration 10.

-------------------------- Output Information ---------------------------
Writing a flow solution every 250 iterations.
Writing the convergence history every 1 iterations.
The output file format is Tecplot ASCII (.dat).
Convergence history file name: history_direct.
Forces breakdown file name: forces_breakdown.dat.
Surface flow coefficients file name: surface_flow.
Flow variables file name: flow.
Restart flow file name: restart_flow.dat.

------------------- Config File Boundary Information --------------------
Euler wall boundary marker(s): airfoil.
Far-field boundary marker(s): farfield.

---------------------- Read Grid File Information -----------------------
Two dimensional problem.
5233 points before parallel partitioning.
Performing linear partitioning of the grid nodes.
10216 interior elements before parallel partitioning.
Calling the partitioning functions.
Building the graph adjacency structure.
Distributing elements across all ranks.
2 surface markers.
200 boundary elements in index 0 (Marker = airfoil).
50 boundary elements in index 1 (Marker = farfield).
Calling ParMETIS...
Finished partitioning using ParMETIS (547 edge cuts).
Communicating partition data and creating halo layers.
10763 interior elements including halo cells. 
10763 triangles.
5796 vertices including ghost points. 
Establishing MPI communication patterns.

------------------------- Geometry Preprocessing ------------------------
Setting point connectivity.
Renumbering points (Reverse Cuthill McKee Ordering).
Recomputing point connectivity.
Setting element connectivity.
Checking the numerical grid orientation.
Identifying edges and vertices.
Computing centers of gravity.
Setting the control volume structure.
Area of the computational grid: 1.3e+03.
Searching for the closest normal neighbors to the surfaces.
Compute the surface curvature.
Max K: 7.84e+03. Mean K: 35.7. Standard deviation K: 494.
Checking for periodicity.
Setting the multigrid structure.
MG level: 0 -> CVs: 5796. Agglomeration rate 1/1.00. CFL 10.
MG level: 1 -> CVs: 1800. Agglomeration rate 1/3.22. CFL 8.36.
MG level: 2 -> CVs: 626. Agglomeration rate 1/2.88. CFL 7.39.
Computing wall distances.
Wetted area = 2.03 m.
Area projection in the x-plane = 0.107 m, y-plane = 1 m.

------------------------- Driver information --------------------------
A Fluid driver has been instantiated.

------------------------ Iteration Preprocessing ------------------------
Zone 1: Euler/Navier-Stokes/RANS flow iteration.

------------------------- Solver Preprocessing --------------------------
Inviscid flow: Computing density based on free-stream
temperature and pressure using the ideal gas law.
Force coefficients computed using free-stream values.
-- Input conditions:
Fluid Model: STANDARD_AIR 
Specific gas constant: 287.058 N.m/kg.K.
Specific gas constant (non-dim): 1
Specific Heat Ratio: 1.4
Free-stream static pressure: 101325 Pa.
Free-stream total pressure: 154454 Pa.
Free-stream temperature: 288.15 K.
Free-stream density: 1.22498 kg/m^3.
Free-stream velocity: (272.173, 5.93883) m/s. Magnitude: 272.238 m/s (529.186 KTS).
Free-stream total energy per unit mass: 243846 m^2/s^2.
-- Reference values:
Reference specific gas constant: 287.058 N.m/kg.K.
Reference pressure: 101325 Pa.
Reference temperature: 288.15 K.
Reference density: 1.22498 kg/m^3.
Reference velocity: 287.603 m/s.
Reference energy per unit mass: 82715.8 m^2/s^2.
-- Resulting non-dimensional state:
Mach number (non-dim): 0.8
Specific gas constant (non-dim): 1
Free-stream temperature (non-dim): 1
Free-stream pressure (non-dim): 1
Free-stream density (non-dim): 1
Free-stream velocity (non-dim): (0.946348, 0.0206494). Magnitude: 0.946573
Free-stream total energy per unit mass (non-dim): 2.948

Initialize Jacobian structure (Euler). MG level: 0.
Initialize Jacobian structure (Euler). MG level: 1.
Initialize Jacobian structure (Euler). MG level: 2.

----------------- Integration and Numerics Preprocessing ----------------
Integration Preprocessing.
Numerics Preprocessing.

------------------------------ Begin Solver -----------------------------

---------------------- Local Time Stepping Summary ----------------------
MG level: 0 -> Min. DT: 0.000497807. Max. DT: 3.62869. CFL: 10.
MG level: 1 -> Min. DT: 0.000799999. Max. DT: 5.71115. CFL: 8.35917.
MG level: 2 -> Min. DT: 0.00155937. Max. DT: 8.31072. CFL: 7.39444.
-------------------------------------------------------------------------

----------------------- Residual Evolution Summary ----------------------
log10[Maximum residual]: -5.8941.
Maximum residual point 105, located at (0.00752, 0.011557).
-------------------------------------------------------------------------

 Iter    Time(s)     Res[Rho]     Res[RhoE]      CL(Total)      CD(Total)
 4033   0.017096    -6.996510     -6.400130       0.066246       0.000403
 4034   0.016930    -7.054282     -6.451003       0.066261       0.000419
 4035   0.016847    -7.057009     -6.457073       0.066272       0.000426
 4036   0.016885    -7.025035     -6.421461       0.066285       0.000431
 4037   0.018197    -6.982562     -6.377147       0.066299       0.000435
 4038   0.019632    -6.949104     -6.345689       0.066315       0.000438
 4039   0.020798    -6.920132     -6.317865       0.066331       0.000440
 4040   0.020767    -6.893174     -6.290056       0.066347       0.000442
 4041   0.020387    -6.875129     -6.271455       0.066361       0.000444
 4042   0.020659    -6.864495     -6.260552       0.066373       0.000445
 4043   0.020474    -6.860122     -6.256056       0.066384       0.000446
 4044   0.020227    -6.860557     -6.256418       0.066394       0.000447
 4045   0.019945    -6.864090     -6.259910       0.066403       0.000447
 4046   0.019726    -6.869340     -6.265193       0.066411       0.000448
 4047   0.019520    -6.875498     -6.271471       0.066418       0.000448
 4048   0.019366    -6.882059     -6.278143       0.066425       0.000448
 4049   0.019283    -6.888512     -6.284503       0.066431       0.000448
 4050   0.019119    -6.894314     -6.289783       0.066437       0.000448
 4051   0.019097    -6.899081     -6.293455       0.066442       0.000449
 4052   0.019067    -6.902782     -6.295506       0.066447       0.000449
 4053   0.019065    -6.905794     -6.296474       0.066451       0.000449
 4054   0.018952    -6.908750     -6.297210       0.066455       0.000449
 4055   0.018898    -6.912408     -6.298670       0.066458       0.000449
 4056   0.018794    -6.917632     -6.301869       0.066462       0.000449
 4057   0.018676    -6.925466     -6.307972       0.066465       0.000449
 4058   0.018582    -6.937269     -6.318453       0.066467       0.000449
 4059   0.018491    -6.954848     -6.335258       0.066470       0.000449
 4060   0.018443    -6.980655     -6.361029       0.066472       0.000450
 4061   0.018377    -7.018283     -6.399661       0.066475       0.000450
 4062   0.018409    -7.072771     -6.456674       0.066477       0.000450
 4063   0.018347    -7.145589     -6.533960       0.066480       0.000451
 4064   0.018408    -7.210378     -6.603197       0.066483       0.000451
 4065   0.018371    -7.244548     -6.639780       0.066487       0.000452
 4066   0.018352    -7.266082     -6.663649       0.066491       0.000452
 4067   0.018346    -7.285273     -6.685996       0.066495       0.000452
 4068   0.018319    -7.300881     -6.704717       0.066499       0.000452
 4069   0.018333    -7.308767     -6.714632       0.066503       0.000453
 4070   0.018328    -7.311660     -6.718885       0.066507       0.000453
 4071   0.018280    -7.313772     -6.722381       0.066511       0.000453
 4072   0.018236    -7.315828     -6.725920       0.066514       0.000453

---------------------- Local Time Stepping Summary ----------------------
MG level: 0 -> Min. DT: 0.000497804. Max. DT: 3.62869. CFL: 10.
MG level: 1 -> Min. DT: 0.000799996. Max. DT: 5.71115. CFL: 8.35917.
MG level: 2 -> Min. DT: 0.00155936. Max. DT: 8.31071. CFL: 7.39444.
-------------------------------------------------------------------------

----------------------- Residual Evolution Summary ----------------------
log10[Maximum residual]: -6.38623.
Maximum residual point 1582, located at (0.537284, 0.217747).
-------------------------------------------------------------------------

 Iter    Time(s)     Res[Rho]     Res[RhoE]      CL(Total)      CD(Total)
 4073   0.018258    -7.316727     -6.728182       0.066518       0.000453
 4074   0.018303    -7.316363     -6.728976       0.066521       0.000453
 4075   0.018268    -7.315346     -6.728906       0.066524       0.000453
 4076   0.018229    -7.313982     -6.728242       0.066527       0.000453
 4077   0.018195    -7.312465     -6.727165       0.066529       0.000453
 4078   0.018158    -7.311191     -6.726115       0.066531       0.000453
 4079   0.018148    -7.310547     -6.725532       0.066533       0.000453
 4080   0.018121    -7.310785     -6.725715       0.066535       0.000453
 4081   0.018212    -7.312136     -6.726942       0.066537       0.000453
 4082   0.018362    -7.314829     -6.729495       0.066538       0.000453
 4083   0.018398    -7.319035     -6.733598       0.066540       0.000453
 4084   0.018421    -7.324887     -6.739435       0.066541       0.000453
 4085   0.018419    -7.332517     -6.747196       0.066543       0.000453
 4086   0.018442    -7.342047     -6.757064       0.066544       0.000453
 4087   0.018458    -7.353565     -6.769191       0.066545       0.000453
 4088   0.018433    -7.367135     -6.783704       0.066546       0.000453
 4089   0.018401    -7.382809     -6.800720       0.066547       0.000453
 4090   0.018373    -7.400638     -6.820357       0.066548       0.000453
 4091   0.018407    -7.420690     -6.842756       0.066549       0.000453
 4092   0.018499    -7.443078     -6.868111       0.066550       0.000453
 4093   0.018635    -7.467974     -6.896688       0.066551       0.000453
 4094   0.018675    -7.495599     -6.928812       0.066552       0.000453
 4095   0.018663    -7.526197     -6.964836       0.066553       0.000453
 4096   0.018641    -7.559962     -7.005035       0.066554       0.000452
 4097   0.018616    -7.596825     -7.049311       0.066554       0.000452
 4098   0.018625    -7.635823     -7.096298       0.066555       0.000452
 4099   0.018622    -7.673332     -7.140910       0.066556       0.000452
 4100   0.018612    -7.699943     -7.170297       0.066556       0.000452
 4101   0.018586    -7.703704     -7.169689       0.066557       0.000452
 4102   0.018576    -7.689287     -7.147937       0.066557       0.000452
 4103   0.018545    -7.672393     -7.125650       0.066558       0.000452
 4104   0.018525    -7.661127     -7.111478       0.066558       0.000452
 4105   0.018494    -7.656476     -7.105293       0.066558       0.000452
 4106   0.018515    -7.655876     -7.103707       0.066558       0.000452
 4107   0.018509    -7.659960     -7.107872       0.066558       0.000452
 4108   0.018502    -7.669173     -7.118484       0.066558       0.000452
 4109   0.018476    -7.680376     -7.131490       0.066558       0.000452
 4110   0.018456    -7.691996     -7.144888       0.066558       0.000452
 4111   0.018431    -7.702707     -7.157017       0.066558       0.000452
 4112   0.018405    -7.711178     -7.166172       0.066558       0.000452

---------------------- Local Time Stepping Summary ----------------------
MG level: 0 -> Min. DT: 0.000497807. Max. DT: 3.62869. CFL: 10.
MG level: 1 -> Min. DT: 0.000799997. Max. DT: 5.71115. CFL: 8.35917.
MG level: 2 -> Min. DT: 0.00155937. Max. DT: 8.31071. CFL: 7.39444.
-------------------------------------------------------------------------

----------------------- Residual Evolution Summary ----------------------
log10[Maximum residual]: -6.55983.
Maximum residual point 1601, located at (0.506509, 0.218589).
-------------------------------------------------------------------------

 Iter    Time(s)     Res[Rho]     Res[RhoE]      CL(Total)      CD(Total)
 4113   0.018393    -7.718138     -7.173394       0.066559       0.000452
 4114   0.018367    -7.724601     -7.180045       0.066559       0.000452
 4115   0.018392    -7.731164     -7.186828       0.066559       0.000452
 4116   0.018393    -7.738063     -7.193962       0.066559       0.000452
 4117   0.018401    -7.745379     -7.201522       0.066559       0.000452
 4118   0.018382    -7.753213     -7.209657       0.066559       0.000452
 4119   0.018361    -7.761702     -7.218575       0.066559       0.000452
 4120   0.018343    -7.771008     -7.228500       0.066559       0.000452
 4121   0.018325    -7.781323     -7.239671       0.066559       0.000452
 4122   0.018300    -7.792867     -7.252352       0.066559       0.000452
 4123   0.018282    -7.805846     -7.266779       0.066559       0.000452
 4124   0.018270    -7.820410     -7.283105       0.066559       0.000452
 4125   0.018252    -7.836619     -7.301367       0.066559       0.000452
 4126   0.018233    -7.854455     -7.321504       0.066559       0.000452
 4127   0.018216    -7.873837     -7.343385       0.066559       0.000452
 4128   0.018197    -7.894613     -7.366805       0.066559       0.000452
 4129   0.018182    -7.916502     -7.391404       0.066559       0.000452
 4130   0.018161    -7.938960     -7.416501       0.066559       0.000452
 4131   0.018148    -7.960907     -7.440727       0.066559       0.000452
 4132   0.018127    -7.980321     -7.461325       0.066559       0.000452
 4133   0.018115    -7.994573     -7.474758       0.066559       0.000452
 4134   0.018101    -8.001916     -7.479590       0.066558       0.000452
 4135   0.018100    -8.001959     -7.475911       0.066558       0.000452
 4136   0.018092    -7.998760     -7.469281       0.066558       0.000452
 4137   0.018086    -7.996201     -7.464515       0.066558       0.000452
 4138   0.018150    -7.996117     -7.463443       0.066558       0.000452
 4139   0.018269    -7.998839     -7.466047       0.066558       0.000452
 4140   0.018328    -8.004785     -7.472686       0.066558       0.000452
 4141   0.018438    -8.014218     -7.483614       0.066558       0.000452
 4142   0.018515    -8.026961     -7.498504       0.066558       0.000452
 4143   0.018682    -8.042544     -7.516659       0.066558       0.000452
 4144   0.018932    -8.060588     -7.537546       0.066558       0.000452
 4145   0.019157    -8.081110     -7.561172       0.066558       0.000452
 4146   0.019274    -8.104317     -7.587770       0.066558       0.000452
 4147   0.019361    -8.129761     -7.616655       0.066558       0.000452
 4148   0.019416    -8.155773     -7.645501       0.066558       0.000452
 4149   0.019470    -8.180371     -7.671724       0.066558       0.000452
 4150   0.019465    -8.202423     -7.694158       0.066558       0.000452
 4151   0.019435    -8.221499     -7.712605       0.066558       0.000452
 4152   0.019412    -8.237879     -7.727715       0.066558       0.000452

---------------------- Local Time Stepping Summary ----------------------
MG level: 0 -> Min. DT: 0.000497808. Max. DT: 3.62869. CFL: 10.
MG level: 1 -> Min. DT: 0.000799997. Max. DT: 5.71115. CFL: 8.35917.
MG level: 2 -> Min. DT: 0.00155937. Max. DT: 8.31071. CFL: 7.39444.
-------------------------------------------------------------------------

----------------------- Residual Evolution Summary ----------------------
log10[Maximum residual]: -7.06171.
Maximum residual point 261, located at (0.583332, 0.0575255).
-------------------------------------------------------------------------

 Iter    Time(s)     Res[Rho]     Res[RhoE]      CL(Total)      CD(Total)
 4153   0.019457    -8.254235     -7.743404       0.066558       0.000452
 4154   0.019531    -8.273639     -7.763818       0.066558       0.000452
 4155   0.019555    -8.295110     -7.786797       0.066558       0.000452
 4156   0.019570    -8.316972     -7.809484       0.066558       0.000452
 4157   0.019557    -8.339454     -7.832575       0.066558       0.000452
 4158   0.019533    -8.361690     -7.855048       0.066558       0.000452
 4159   0.019512    -8.383458     -7.876725       0.066558       0.000452
 4160   0.019496    -8.405144     -7.898344       0.066558       0.000452
 4161   0.019472    -8.427004     -7.920308       0.066559       0.000452
 4162   0.019458    -8.448841     -7.942252       0.066559       0.000452
 4163   0.019439    -8.470825     -7.964436       0.066559       0.000452
 4164   0.019475    -8.493915     -7.988289       0.066559       0.000452
 4165   0.019469    -8.516187     -8.010609       0.066559       0.000452
 4166   0.019450    -8.535913     -8.029215       0.066559       0.000452
 4167   0.019434    -8.561247     -8.056805       0.066559       0.000452
 4168   0.019416    -8.583182     -8.078610       0.066559       0.000452
 4169   0.019394    -8.607191     -8.103106       0.066559       0.000452
 4170   0.019375    -8.627315     -8.122020       0.066559       0.000452
 4171   0.019356    -8.647747     -8.141750       0.066559       0.000452
 4172   0.019340    -8.668851     -8.162732       0.066559       0.000452
 4173   0.019319    -8.687867     -8.180898       0.066559       0.000452
 4174   0.019298    -8.707898     -8.200408       0.066559       0.000452
 4175   0.019286    -8.728431     -8.220990       0.066559       0.000452
 4176   0.019294    -8.749497     -8.242052       0.066559       0.000452
 4177   0.019288    -8.770394     -8.262719       0.066560       0.000452
 4178   0.019266    -8.791768     -8.283928       0.066560       0.000452
 4179   0.019249    -8.813598     -8.305747       0.066560       0.000452
 4180   0.019234    -8.836476     -8.328970       0.066560       0.000452
 4181   0.019215    -8.860452     -8.353558       0.066560       0.000452
 4182   0.019274    -8.885290     -8.379084       0.066560       0.000452
 4183   0.019349    -8.910882     -8.405378       0.066560       0.000452
 4184   0.019374    -8.937106     -8.432306       0.066560       0.000452
 4185   0.019402    -8.963888     -8.459799       0.066560       0.000452
 4186   0.019393    -8.991340     -8.488045       0.066560       0.000452
 4187   0.019382    -9.019696     -8.517366       0.066560       0.000452
 4188   0.019370    -9.049258     -8.548142       0.066560       0.000452
 4189   0.019354    -9.080238     -8.580577       0.066560       0.000452
 4190   0.019352    -9.112646     -8.614578       0.066560       0.000452
 4191   0.019387    -9.146204     -8.649667       0.066560       0.000452
 4192   0.019437    -9.180176     -8.684759       0.066560       0.000452

---------------------- Local Time Stepping Summary ----------------------
MG level: 0 -> Min. DT: 0.000497807. Max. DT: 3.62869. CFL: 10.
MG level: 1 -> Min. DT: 0.000799998. Max. DT: 5.71115. CFL: 8.35917.
MG level: 2 -> Min. DT: 0.00155937. Max. DT: 8.31071. CFL: 7.39444.
-------------------------------------------------------------------------

----------------------- Residual Evolution Summary ----------------------
log10[Maximum residual]: -7.9502.
Maximum residual point 261, located at (0.583332, 0.0575255).
-------------------------------------------------------------------------

 Iter    Time(s)     Res[Rho]     Res[RhoE]      CL(Total)      CD(Total)
 4193   0.019524    -9.213241     -8.718026       0.066560       0.000452
 4194   0.019586    -9.243526     -8.747077       0.066560       0.000452
 4195   0.019640    -9.270429     -8.771744       0.066560       0.000452
 4196   0.019666    -9.298616     -8.799029       0.066560       0.000452
 4197   0.019694    -9.325636     -8.824840       0.066560       0.000452
 4198   0.019713    -9.338092     -8.830263       0.066560       0.000452
 4199   0.019694    -9.371416     -8.867568       0.066560       0.000452
 4200   0.019702    -9.406509     -8.909358       0.066560       0.000452
 4201   0.019692    -9.435476     -8.936461       0.066560       0.000452
 4202   0.019676    -9.470902     -8.973734       0.066559       0.000452
 4203   0.019662    -9.507701     -9.012266       0.066559       0.000452
 4204   0.019663    -9.531745     -9.031501       0.066559       0.000452
 4205   0.019663    -9.567684     -9.069306       0.066559       0.000452
 4206   0.019651    -9.599373     -9.100860       0.066559       0.000452
 4207   0.019636    -9.631159     -9.132151       0.066559       0.000452
 4208   0.019620    -9.658856     -9.157761       0.066559       0.000452
 4209   0.019625    -9.681491     -9.176823       0.066559       0.000452
 4210   0.019615    -9.699595     -9.190820       0.066559       0.000452
 4211   0.019597    -9.730931     -9.225745       0.066559       0.000452
 4212   0.019584    -9.757339     -9.252324       0.066559       0.000452
 4213   0.019582    -9.784236     -9.279395       0.066559       0.000452
 4214   0.019584    -9.813648     -9.309750       0.066559       0.000452
 4215   0.019583    -9.847500     -9.346666       0.066559       0.000452
 4216   0.019565    -9.878943     -9.378710       0.066559       0.000452
 4217   0.019549    -9.907102     -9.406086       0.066559       0.000452
 4218   0.019529    -9.936483     -9.435836       0.066559       0.000452
 4219   0.019513    -9.960907     -9.458525       0.066559       0.000452
 4220   0.019524    -9.980618     -9.475277       0.066559       0.000452
 4221   0.019510   -10.000021     -9.493001       0.066559       0.000452
 4222   0.019494   -10.018665     -9.510303       0.066559       0.000452
 4223   0.019477   -10.034768     -9.524365       0.066559       0.000452
 4224   0.019457   -10.050479     -9.538377       0.066559       0.000452
 4225   0.019445   -10.067041     -9.554085       0.066559       0.000452
 4226   0.019442   -10.085421     -9.572412       0.066559       0.000452
 4227   0.019425   -10.102683     -9.588902       0.066559       0.000452
 4228   0.019418   -10.119036     -9.604142       0.066559       0.000452
 4229   0.019403   -10.136094     -9.620632       0.066559       0.000452
 4230   0.019391   -10.151572     -9.634921       0.066559       0.000452
 4231   0.019382   -10.162315     -9.642892       0.066559       0.000452
 4232   0.019370   -10.171189     -9.649133       0.066559       0.000452

---------------------- Local Time Stepping Summary ----------------------
MG level: 0 -> Min. DT: 0.000497808. Max. DT: 3.62869. CFL: 10.
MG level: 1 -> Min. DT: 0.000799997. Max. DT: 5.71115. CFL: 8.35917.
MG level: 2 -> Min. DT: 0.00155937. Max. DT: 8.31071. CFL: 7.39444.
-------------------------------------------------------------------------

----------------------- Residual Evolution Summary ----------------------
log10[Maximum residual]: -8.97111.
Maximum residual point 436, located at (0.36366, 0.060987).
-------------------------------------------------------------------------

 Iter    Time(s)     Res[Rho]     Res[RhoE]      CL(Total)      CD(Total)
 4233   0.019354   -10.180464     -9.656641       0.066559       0.000452
 4234   0.019341   -10.187808     -9.661838       0.066559       0.000452
 4235   0.019328   -10.192712     -9.664159       0.066559       0.000452
 4236   0.019313   -10.198922     -9.668765       0.066559       0.000452
 4237   0.019297   -10.207449     -9.676669       0.066559       0.000452
 4238   0.019283   -10.215402     -9.683668       0.066559       0.000452
 4239   0.019267   -10.221824     -9.688632       0.066559       0.000452
 4240   0.019278   -10.229732     -9.695750       0.066559       0.000452
 4241   0.019266   -10.240367     -9.706493       0.066559       0.000452
 4242   0.019251   -10.251101     -9.717129       0.066559       0.000452
 4243   0.019257   -10.260190     -9.725455       0.066559       0.000452
 4244   0.019257   -10.270142     -9.735015       0.066559       0.000452
 4245   0.019284   -10.282808     -9.748187       0.066559       0.000452
 4246   0.019314   -10.295776     -9.761560       0.066559       0.000452
 4247   0.019330   -10.306628     -9.771988       0.066559       0.000452
 4248   0.019330   -10.318000     -9.783210       0.066559       0.000452
 4249   0.019329   -10.332353     -9.798453       0.066559       0.000452
 4250   0.019316   -10.346511     -9.813255       0.066559       0.000452
 4251   0.019303   -10.357731     -9.824034       0.066559       0.000452
 4252   0.019291   -10.370391     -9.836887       0.066559       0.000452
 4253   0.019279   -10.386373     -9.854231       0.066559       0.000452
 4254   0.019264   -10.399792     -9.867917       0.066559       0.000452
 4255   0.019249   -10.410355     -9.877794       0.066559       0.000452
 4256   0.019236   -10.425171     -9.893586       0.066559       0.000452
 4257   0.019225   -10.441622     -9.911491       0.066559       0.000452
 4258   0.019213   -10.451930     -9.920915       0.066559       0.000452
 4259   0.019199   -10.463289     -9.931971       0.066559       0.000452
 4260   0.019202   -10.481191     -9.952012       0.066559       0.000452
 4261   0.019195   -10.494316     -9.965260       0.066559       0.000452
 4262   0.019198   -10.502166     -9.971446       0.066559       0.000452
 4263   0.019191   -10.518489     -9.989368       0.066559       0.000452
 4264   0.019178   -10.536723    -10.009688       0.066559       0.000452
 4265   0.019165   -10.543474    -10.014177       0.066559       0.000452
 4266   0.019152   -10.554848    -10.025249       0.066559       0.000452
 4267   0.019142   -10.576712    -10.050742       0.066559       0.000452
 4268   0.019132   -10.587147    -10.060085       0.066559       0.000452
 4269   0.019135   -10.592347    -10.062622       0.066559       0.000452
 4270   0.019131   -10.612829    -10.086285       0.066559       0.000452
 4271   0.019118   -10.631759    -10.107363       0.066559       0.000452
 4272   0.019116   -10.633471    -10.104896       0.066559       0.000452

---------------------- Local Time Stepping Summary ----------------------
MG level: 0 -> Min. DT: 0.000497808. Max. DT: 3.62869. CFL: 10.
MG level: 1 -> Min. DT: 0.000799997. Max. DT: 5.71115. CFL: 8.35917.
MG level: 2 -> Min. DT: 0.00155937. Max. DT: 8.31071. CFL: 7.39444.
-------------------------------------------------------------------------

----------------------- Residual Evolution Summary ----------------------
log10[Maximum residual]: -9.51394.
Maximum residual point 435, located at (0.333461, 0.0601598).
-------------------------------------------------------------------------

 Iter    Time(s)     Res[Rho]     Res[RhoE]      CL(Total)      CD(Total)
 4273   0.019106   -10.645750    -10.117256       0.066559       0.000452
 4274   0.019094   -10.671457    -10.148180       0.066559       0.000452
 4275   0.019081   -10.679447    -10.153911       0.066559       0.000452
 4276   0.019070   -10.680218    -10.150509       0.066559       0.000452
 4277   0.019059   -10.700204    -10.173804       0.066559       0.000452
 4278   0.019047   -10.722327    -10.199562       0.066559       0.000452
 4279   0.019035   -10.721347    -10.193477       0.066559       0.000452
 4280   0.019029   -10.724838    -10.194270       0.066559       0.000452
 4281   0.019022   -10.744642    -10.217836       0.066559       0.000452
 4282   0.019013   -10.756915    -10.230636       0.066559       0.000452
 4283   0.019007   -10.754232    -10.223372       0.066559       0.000452

-------------------------- File Output Summary --------------------------
Writing comma-separated values (CSV) surface files.
Merging coordinates in the Master node.
Merging solution in the Master node.
Writing SU2 native restart file.
Writing the forces breakdown file.
-------------------------------------------------------------------------

 4284   0.019193   -10.759554    -10.227417       0.066559       0.000452
 4285   0.019188   -10.770111    -10.239112       0.066559       0.000452
 4286   0.019179   -10.778895    -10.248040       0.066559       0.000452
 4287   0.019169   -10.781379    -10.248439       0.066559       0.000452
 4288   0.019159   -10.787803    -10.254237       0.066559       0.000452
 4289   0.019148   -10.798707    -10.266116       0.066559       0.000452
 4290   0.019137   -10.811114    -10.279576       0.066559       0.000452
 4291   0.019127   -10.817005    -10.284156       0.066559       0.000452
 4292   0.019121   -10.828146    -10.295673       0.066559       0.000452
 4293   0.019110   -10.843884    -10.313210       0.066559       0.000452
 4294   0.019099   -10.858541    -10.328862       0.066559       0.000452
 4295   0.019089   -10.863438    -10.331520       0.066559       0.000452
 4296   0.019078   -10.883184    -10.353976       0.066559       0.000452
 4297   0.019073   -10.903680    -10.376972       0.066559       0.000452
 4298   0.019071   -10.909089    -10.379576       0.066559       0.000452
 4299   0.019091   -10.919952    -10.389733       0.066559       0.000452
 4300   0.019114   -10.952716    -10.431105       0.066559       0.000452
 4301   0.019146   -10.947926    -10.420032       0.066559       0.000452
 4302   0.019141   -10.976787    -10.453861       0.066559       0.000452
 4303   0.019136   -10.998736    -10.479052       0.066559       0.000452
 4304   0.019129   -10.984376    -10.456043       0.066559       0.000452
 4305   0.019119   -11.040379    -10.528542       0.066559       0.000452
 4306   0.019108   -11.058100    -10.545275       0.066559       0.000452
 4307   0.019100   -11.031830    -10.505404       0.066559       0.000452
 4308   0.019091   -11.086043    -10.575826       0.066559       0.000452
 4309   0.019081   -11.102605    -10.591298       0.066559       0.000452
 4310   0.019072   -11.092203    -10.570239       0.066559       0.000452
 4311   0.019063   -11.129835    -10.617247       0.066559       0.000452
 4312   0.019054   -11.136400    -10.619417       0.066559       0.000452

---------------------- Local Time Stepping Summary ----------------------
MG level: 0 -> Min. DT: 0.000497808. Max. DT: 3.62869. CFL: 10.
MG level: 1 -> Min. DT: 0.000799997. Max. DT: 5.71115. CFL: 8.35917.
MG level: 2 -> Min. DT: 0.00155937. Max. DT: 8.31071. CFL: 7.39444.
-------------------------------------------------------------------------

----------------------- Residual Evolution Summary ----------------------
log10[Maximum residual]: -9.98881.
Maximum residual point 436, located at (0.36366, 0.060987).
-------------------------------------------------------------------------

 Iter    Time(s)     Res[Rho]     Res[RhoE]      CL(Total)      CD(Total)
 4313   0.019045   -11.136021    -10.612594       0.066559       0.000452
 4314   0.019043   -11.164891    -10.647804       0.066559       0.000452
 4315   0.019042   -11.171170    -10.650298       0.066559       0.000452
 4316   0.019042   -11.176546    -10.651921       0.066559       0.000452
 4317   0.019034   -11.202061    -10.682950       0.066559       0.000452
 4318   0.019029   -11.205906    -10.682569       0.066559       0.000452
 4319   0.019021   -11.219098    -10.695106       0.066559       0.000452
 4320   0.019015   -11.246113    -10.729073       0.066559       0.000452
 4321   0.019006   -11.240763    -10.715933       0.066559       0.000452
 4322   0.019000   -11.271576    -10.753941       0.066559       0.000452
 4323   0.019003   -11.282627    -10.762604       0.066559       0.000452
 4324   0.019003   -11.293635    -10.771068       0.066559       0.000452
 4325   0.018996   -11.312304    -10.793288       0.066559       0.000452
 4326   0.018991   -11.303114    -10.776465       0.066559       0.000452
 4327   0.018988   -11.333600    -10.815022       0.066559       0.000452
 4328   0.018979   -11.344186    -10.823939       0.066559       0.000452
 4329   0.018968   -11.369075    -10.850974       0.066559       0.000452
 4330   0.018971   -11.380882    -10.862125       0.066559       0.000452
 4331   0.018969   -11.364697    -10.836388       0.066559       0.000452
 4332   0.018974   -11.388212    -10.866457       0.066559       0.000452
 4333   0.018984   -11.412300    -10.895116       0.066559       0.000452
 4334   0.018979   -11.441627    -10.927079       0.066559       0.000452
 4335   0.018986   -11.450520    -10.931292       0.066559       0.000452
 4336   0.018980   -11.478630    -10.963058       0.066559       0.000452
 4337   0.018987   -11.489104    -10.970692       0.066559       0.000452
 4338   0.018990   -11.518887    -11.005879       0.066559       0.000452
 4339   0.018992   -11.541029    -11.027972       0.066559       0.000452
 4340   0.018998   -11.546067    -11.026620       0.066559       0.000452
 4341   0.019007   -11.568138    -11.053060       0.066559       0.000452
 4342   0.019011   -11.584785    -11.069821       0.066559       0.000452
 4343   0.019003   -11.578246    -11.054954       0.066559       0.000452
 4344   0.018995   -11.601535    -11.085511       0.066559       0.000452
 4345   0.018989   -11.624293    -11.111129       0.066559       0.000452
 4346   0.018980   -11.626172    -11.106952       0.066559       0.000452
 4347   0.018971   -11.640467    -11.122105       0.066559       0.000452
 4348   0.018964   -11.665688    -11.153867       0.066559       0.000452
 4349   0.018956   -11.686083    -11.174465       0.066559       0.000452
 4350   0.018947   -11.703709    -11.190884       0.066559       0.000452
 4351   0.018939   -11.705714    -11.187112       0.066559       0.000452
 4352   0.018933   -11.737422    -11.228244       0.066559       0.000452

---------------------- Local Time Stepping Summary ----------------------
MG level: 0 -> Min. DT: 0.000497808. Max. DT: 3.62869. CFL: 10.
MG level: 1 -> Min. DT: 0.000799997. Max. DT: 5.71115. CFL: 8.35917.
MG level: 2 -> Min. DT: 0.00155937. Max. DT: 8.31071. CFL: 7.39444.
-------------------------------------------------------------------------

----------------------- Residual Evolution Summary ----------------------
log10[Maximum residual]: -10.619.
Maximum residual point 378, located at (0.394398, 0.0615113).
-------------------------------------------------------------------------

 Iter    Time(s)     Res[Rho]     Res[RhoE]      CL(Total)      CD(Total)
 4353   0.018930   -11.751151    -11.239508       0.066559       0.000452
 4354   0.018948   -11.744886    -11.223714       0.066559       0.000452
 4355   0.018968   -11.771398    -11.258946       0.066559       0.000452
 4356   0.018986   -11.775244    -11.259688       0.066559       0.000452
 4357   0.018982   -11.770765    -11.249099       0.066559       0.000452
 4358   0.018979   -11.815623    -11.310438       0.066559       0.000452
 4359   0.018970   -11.829701    -11.320237       0.066559       0.000452
 4360   0.018964   -11.813956    -11.290741       0.066559       0.000452
 4361   0.018957   -11.849027    -11.336848       0.066559       0.000452
 4362   0.018950   -11.868506    -11.358215       0.066559       0.000452
 4363   0.018942   -11.851044    -11.326888       0.066559       0.000452
 4364   0.018936   -11.884093    -11.369558       0.066559       0.000452
 4365   0.018926   -11.917375    -11.411681       0.066559       0.000452
 4366   0.018922   -11.907597    -11.388427       0.066559       0.000452
 4367   0.018916   -11.924459    -11.406027       0.066559       0.000452
 4368   0.018909   -11.960638    -11.453740       0.066559       0.000452
 4369   0.018911   -11.954196    -11.436156       0.066559       0.000452
 4370   0.018909   -11.974757    -11.458455       0.066559       0.000452
 4371   0.018909   -12.006703    -11.498486       0.066559       0.000452
 4372   0.018904   -12.002086    -11.483566       0.066559       0.000452
 4373   0.018901   -12.033820    -11.522271       0.066559       0.000452
 4374   0.018894   -12.053342    -11.542770       0.066559       0.000452
 4375   0.018886   -12.037459    -11.513853       0.066559       0.000452
 4376   0.018878   -12.084087    -11.576397       0.066559       0.000452
 4377   0.018872   -12.116235    -11.613646       0.066559       0.000452
 4378   0.018869   -12.106560    -11.588901       0.066559       0.000452
 4379   0.018863   -12.130583    -11.615621       0.066559       0.000452
 4380   0.018856   -12.157178    -11.647620       0.066559       0.000452
 4381   0.018851   -12.166612    -11.651849       0.066559       0.000452
 4382   0.018853   -12.183210    -11.667674       0.066559       0.000452
 4383   0.018846   -12.192232    -11.673503       0.066559       0.000452
 4384   0.018839   -12.229962    -11.722107       0.066559       0.000452
 4385   0.018831   -12.233191    -11.717057       0.066559       0.000452
 4386   0.018826   -12.246176    -11.727139       0.066559       0.000452
 4387   0.018818   -12.258509    -11.738092       0.066559       0.000452
 4388   0.018812   -12.276875    -11.757735       0.066559       0.000452
 4389   0.018805   -12.285765    -11.763433       0.066559       0.000452
 4390   0.018797   -12.310694    -11.791975       0.066559       0.000452
 4391   0.018791   -12.355808    -11.849874       0.066559       0.000452
 4392   0.018783   -12.350270    -11.831187       0.066559       0.000452

---------------------- Local Time Stepping Summary ----------------------
MG level: 0 -> Min. DT: 0.000497808. Max. DT: 3.62869. CFL: 10.
MG level: 1 -> Min. DT: 0.000799997. Max. DT: 5.71115. CFL: 8.35917.
MG level: 2 -> Min. DT: 0.00155937. Max. DT: 8.31071. CFL: 7.39444.
-------------------------------------------------------------------------

----------------------- Residual Evolution Summary ----------------------
log10[Maximum residual]: -11.2174.
Maximum residual point 436, located at (0.36366, 0.060987).
-------------------------------------------------------------------------

 Iter    Time(s)     Res[Rho]     Res[RhoE]      CL(Total)      CD(Total)
 4393   0.018777   -12.386556    -11.874159       0.066559       0.000452
 4394   0.018771   -12.422878    -11.917396       0.066559       0.000452
 4395   0.018764   -12.420793    -11.903130       0.066559       0.000452
 4396   0.018770   -12.448859    -11.934316       0.066559       0.000452
 4397   0.018779   -12.453547    -11.933270       0.066559       0.000452
 4398   0.018803   -12.468688    -11.947658       0.066559       0.000452
 4399   0.018812   -12.505885    -11.995368       0.066559       0.000452
 4400   0.018818   -12.490691    -11.966752       0.066559       0.000452
 4401   0.018812   -12.538691    -12.028347       0.066559       0.000452
 4402   0.018808   -12.561388    -12.050085       0.066559       0.000452
 4403   0.018803   -12.582921    -12.068235       0.066559       0.000452
 4404   0.018800   -12.581442    -12.058131       0.066559       0.000452
 4405   0.018793   -12.630222    -12.122417       0.066559       0.000452
 4406   0.018786   -12.652159    -12.142067       0.066559       0.000452
 4407   0.018795   -12.639089    -12.114859       0.066559       0.000452
 4408   0.018796   -12.662781    -12.141370       0.066559       0.000452
 4409   0.018807   -12.707606    -12.198902       0.066559       0.000452
 4410   0.018823   -12.728418    -12.215695       0.066559       0.000452
 4411   0.018838   -12.716007    -12.189293       0.066559       0.000452
 4412   0.018837   -12.749717    -12.231323       0.066559       0.000452
 4413   0.018834   -12.780812    -12.269871       0.066559       0.000452
 4414   0.018843   -12.764356    -12.240610       0.066559       0.000452
 4415   0.018837   -12.814602    -12.304534       0.066559       0.000452
 4416   0.018832   -12.833999    -12.322049       0.066559       0.000452
 4417   0.018824   -12.846770    -12.330557       0.066559       0.000452
 4418   0.018829   -12.861923    -12.344443       0.066559       0.000452

-------------------------- File Output Summary --------------------------
Writing comma-separated values (CSV) surface files.
Merging coordinates in the Master node.
Merging solution in the Master node.
Writing SU2 native restart file.
Writing the forces breakdown file.
-------------------------------------------------------------------------

History file, closed.

------------------------- Solver Postprocessing -------------------------
Deleted CNumerics container.
Deleted CIntegration container.
Deleted CSolver container.
Deleted CIteration container.
Deleted CInterpolator container.
Deleted CTransfer container.
Deleted CGeometry container.
Deleted CFreeFormDefBox class.
Deleted CSurfaceMovement class.
Deleted CVolumetricMovement class.
Deleted CConfig container.
Deleted COutput class.
-------------------------------------------------------------------------

Completed in 7.324346 seconds on 8 cores.

------------------------- Exit Success (SU2_CFD) ------------------------


-------------------------------------------------------------------------
|    ___ _   _ ___                                                      |
|   / __| | | |_  )   Release 5.0.0  "Raven"                            |
|   \__ \ |_| |/ /                                                      |
|   |___/\___//___|   Suite (Solution Exporting Code)                   |
|                                                                       |
-------------------------------------------------------------------------
| SU2 Original Developers: Dr. Francisco D. Palacios.                   |
|                          Dr. Thomas D. Economon.                      |
-------------------------------------------------------------------------
| SU2 Developers:                                                       |
| - Prof. Juan J. Alonso's group at Stanford University.                |
| - Prof. Piero Colonna's group at Delft University of Technology.      |
| - Prof. Nicolas R. Gauger's group at Kaiserslautern U. of Technology. |
| - Prof. Alberto Guardone's group at Polytechnic University of Milan.  |
| - Prof. Rafael Palacios' group at Imperial College London.            |
| - Prof. Edwin van der Weide's group at the University of Twente.      |
| - Prof. Vincent Terrapon's group at the University of Liege.          |
-------------------------------------------------------------------------
| Copyright (C) 2012-2017 SU2, the open-source CFD code.                |
|                                                                       |
| SU2 is free software; you can redistribute it and/or                  |
| modify it under the terms of the GNU Lesser General Public            |
| License as published by the Free Software Foundation; either          |
| version 2.1 of the License, or (at your option) any later version.    |
|                                                                       |
| SU2 is distributed in the hope that it will be useful,                |
| but WITHOUT ANY WARRANTY; without even the implied warranty of        |
| MERCHANTABILITY or FITNESS FOR A PARTICULAR PURPOSE. See the GNU      |
| Lesser General Public License for more details.                       |
|                                                                       |
| You should have received a copy of the GNU Lesser General Public      |
| License along with SU2. If not, see <http://www.gnu.org/licenses/>.   |
-------------------------------------------------------------------------

------------------------ Physical Case Definition -----------------------
Input mesh file name: mesh_NACA0012_inv_deform.su2

-------------------------- Output Information ---------------------------
The output file format is Tecplot ASCII (.dat).
Flow variables file name: flow.

------------------- Config File Boundary Information --------------------
Euler wall boundary marker(s): airfoil.
Far-field boundary marker(s): farfield.

---------------------- Read Grid File Information -----------------------
Two dimensional problem.
5233 points before parallel partitioning.
Performing linear partitioning of the grid nodes.
10216 interior elements before parallel partitioning.
Calling the partitioning functions.
Building the graph adjacency structure.
Distributing elements across all ranks.
2 surface markers.
200 boundary elements in index 0 (Marker = airfoil).
50 boundary elements in index 1 (Marker = farfield).
Calling ParMETIS...
Finished partitioning using ParMETIS (547 edge cuts).
Communicating partition data and creating halo layers.
10763 interior elements including halo cells. 
10763 triangles.
5796 vertices including ghost points. 
Establishing MPI communication patterns.
Identify vertices.

------------------------- Solution Postprocessing -----------------------
Reading and storing the solution from restart_flow.dat.
Merging connectivities in the Master node.
Merging solution in the Master node.
Writing Tecplot ASCII file (volume grid).
Writing Tecplot ASCII file (surface grid).

Completed in 0.124541 seconds on 8 cores.

------------------------- Exit Success (SU2_SOL) ------------------------

