
-------------------------------------------------------------------------
|    ___ _   _ ___                                                      |
|   / __| | | |_  )   Release 5.0.0  "Raven"                            |
|   \__ \ |_| |/ /                                                      |
|   |___/\___//___|   Suite (Computational Fluid Dynamics Code)         |
|                                                                       |
-------------------------------------------------------------------------
| SU2 Original Developers: Dr. Francisco D. Palacios.                   |
|                          Dr. Thomas D. Economon.                      |
-------------------------------------------------------------------------
| SU2 Developers:                                                       |
| - Prof. Juan J. Alonso's group at Stanford University.                |
| - Prof. Piero Colonna's group at Delft University of Technology.      |
| - Prof. Nicolas R. Gauger's group at Kaiserslautern U. of Technology. |
| - Prof. Alberto Guardone's group at Polytechnic University of Milan.  |
| - Prof. Rafael Palacios' group at Imperial College London.            |
| - Prof. Edwin van der Weide's group at the University of Twente.      |
| - Prof. Vincent Terrapon's group at the University of Liege.          |
-------------------------------------------------------------------------
| Copyright (C) 2012-2017 SU2, the open-source CFD code.                |
|                                                                       |
| SU2 is free software; you can redistribute it and/or                  |
| modify it under the terms of the GNU Lesser General Public            |
| License as published by the Free Software Foundation; either          |
| version 2.1 of the License, or (at your option) any later version.    |
|                                                                       |
| SU2 is distributed in the hope that it will be useful,                |
| but WITHOUT ANY WARRANTY; without even the implied warranty of        |
| MERCHANTABILITY or FITNESS FOR A PARTICULAR PURPOSE. See the GNU      |
| Lesser General Public License for more details.                       |
|                                                                       |
| You should have received a copy of the GNU Lesser General Public      |
| License along with SU2. If not, see <http://www.gnu.org/licenses/>.   |
-------------------------------------------------------------------------

------------------------ Physical Case Definition -----------------------
Compressible Euler equations.
Mach number: 0.8.
Angle of attack (AoA): 1.25 deg, and angle of sideslip (AoS): 0 deg.
Read flow solution from: solution_flow.dat.
Non-Dimensional simulation (P=1.0, Rho=1.0, T=1.0 at the farfield).
The reference length/area (force coefficient) is 1.
The reference length (moment computation) is 1.
Reference origin (moment computation) is (0.25, 0, 0).
Surface(s) where the force coefficients are evaluated: airfoil.
Surface(s) plotted in the output file: airfoil.
Surface(s) affected by the design variables: airfoil.
Input mesh file name: mesh_NACA0012_inv_deform.su2

---------------------- Space Numerical Integration ----------------------
Jameson-Schmidt-Turkel scheme for the flow inviscid terms.
JST viscous coefficients (1st, 2nd & 4th): 0.15, 0.5, 0.02.
The method includes a grid stretching correction (p = 0.3).
Second order integration.
Gradient computation using Green-Gauss theorem.

---------------------- Time Numerical Integration -----------------------
Local time stepping (steady state simulation).
Euler implicit method for the flow equations.
V Multigrid Cycle, with 2 multigrid levels.
Damping factor for the residual restriction: 1.
Damping factor for the correction prolongation: 1.
No CFL adaptation.
Multigrid Level:                       0     1     2
Courant-Friedrichs-Lewy number:       10
MG PreSmooth coefficients:             1     2     3
MG PostSmooth coefficients:            0     0     0
MG CorrecSmooth coefficients:          0     0     0

------------------------- Convergence Criteria --------------------------
Maximum number of iterations: 1000.
Reduce the density residual 6 orders of magnitude.
The minimum bound for the density residual is 10^(-10).
Start convergence criteria at iteration 10.

-------------------------- Output Information ---------------------------
Writing a flow solution every 250 iterations.
Writing the convergence history every 1 iterations.
The output file format is Paraview ASCII (.vtk).
Convergence history file name: history_direct.
Forces breakdown file name: forces_breakdown.dat.
Surface flow coefficients file name: surface_flow.
Flow variables file name: flow.
Restart flow file name: restart_flow.dat.

------------------- Config File Boundary Information --------------------
Euler wall boundary marker(s): airfoil.
Far-field boundary marker(s): farfield.

---------------------- Read Grid File Information -----------------------
Two dimensional problem.
5233 points.
2 surface markers.
200 boundary elements in index 0 (Marker = airfoil).
50 boundary elements in index 1 (Marker = farfield).
10216 triangles.

------------------------- Geometry Preprocessing ------------------------
Setting point connectivity.
Renumbering points (Reverse Cuthill McKee Ordering).
Recomputing point connectivity.
Setting element connectivity.
Checking the numerical grid orientation.
Identifying edges and vertices.
Computing centers of gravity.
Setting the control volume structure.
Area of the computational grid: 1.25e+03.
Searching for the closest normal neighbors to the surfaces.
Compute the surface curvature.
Max K: 7.84e+03. Mean K: 35.8. Standard deviation K: 494.
Checking for periodicity.
Setting the multigrid structure.
MG level: 0 -> CVs: 5233. Agglomeration rate 1/1.00. CFL 10.
MG level: 1 -> CVs: 1533. Agglomeration rate 1/3.41. CFL 8.12.
MG level: 2 -> CVs: 443. Agglomeration rate 1/3.46. CFL 6.55.
Computing wall distances.
Wetted area = 2.03 m.
Area projection in the x-plane = 0.105 m, y-plane = 1 m.

------------------------- Driver information --------------------------
A Fluid driver has been instantiated.

------------------------ Iteration Preprocessing ------------------------
Zone 1: Euler/Navier-Stokes/RANS flow iteration.

------------------------- Solver Preprocessing --------------------------
Inviscid flow: Computing density based on free-stream
temperature and pressure using the ideal gas law.
Force coefficients computed using free-stream values.
-- Input conditions:
Fluid Model: STANDARD_AIR 
Specific gas constant: 287.058 N.m/kg.K.
Specific gas constant (non-dim): 1
Specific Heat Ratio: 1.4
Free-stream static pressure: 101325 Pa.
Free-stream total pressure: 154454 Pa.
Free-stream temperature: 288.15 K.
Free-stream density: 1.22498 kg/m^3.
Free-stream velocity: (272.173, 5.93883) m/s. Magnitude: 272.238 m/s (529.186 KTS).
Free-stream total energy per unit mass: 243846 m^2/s^2.
-- Reference values:
Reference specific gas constant: 287.058 N.m/kg.K.
Reference pressure: 101325 Pa.
Reference temperature: 288.15 K.
Reference density: 1.22498 kg/m^3.
Reference velocity: 287.603 m/s.
Reference energy per unit mass: 82715.8 m^2/s^2.
-- Resulting non-dimensional state:
Mach number (non-dim): 0.8
Specific gas constant (non-dim): 1
Free-stream temperature (non-dim): 1
Free-stream pressure (non-dim): 1
Free-stream density (non-dim): 1
Free-stream velocity (non-dim): (0.946348, 0.0206494). Magnitude: 0.946573
Free-stream total energy per unit mass (non-dim): 2.948

Initialize Jacobian structure (Euler). MG level: 0.
Initialize Jacobian structure (Euler). MG level: 1.
Initialize Jacobian structure (Euler). MG level: 2.

----------------- Integration and Numerics Preprocessing ----------------
Integration Preprocessing.
Numerics Preprocessing.

------------------------------ Begin Solver -----------------------------

---------------------- Local Time Stepping Summary ----------------------
MG level: 0 -> Min. DT: 0.000497838. Max. DT: 3.63097. CFL: 10.
MG level: 1 -> Min. DT: 0.000785151. Max. DT: 5.54927. CFL: 8.11871.
MG level: 2 -> Min. DT: 0.00104782. Max. DT: 7.4176. CFL: 6.5465.
-------------------------------------------------------------------------

----------------------- Residual Evolution Summary ----------------------
log10[Maximum residual]: -3.7938.
Maximum residual point 146, located at (0.44878, 0.0429414).
-------------------------------------------------------------------------

 Iter    Time(s)     Res[Rho]     Res[RhoE]      CL(Total)      CD(Total)
 1151   0.058588    -4.931750     -4.335370       0.009654       0.002191
 1152   0.054391    -4.948060     -4.352935       0.011390       0.001956
 1153   0.052986    -4.965283     -4.368662       0.012669       0.002115
 1154   0.051770    -4.987773     -4.391201       0.013614       0.002039
 1155   0.051035    -4.996583     -4.406132       0.014726       0.001956
 1156   0.051075    -4.969553     -4.377445       0.015774       0.001891
 1157   0.052914    -4.951437     -4.357006       0.016683       0.001871
 1158   0.054841    -4.961540     -4.368655       0.017541       0.001794
 1159   0.056564    -4.984881     -4.396195       0.018336       0.001754
 1160   0.056815    -5.000430     -4.413127       0.019041       0.001732
 1161   0.056514    -5.018312     -4.430688       0.019664       0.001714
 1162   0.056654    -5.045119     -4.457533       0.020224       0.001697
 1163   0.056244    -5.068019     -4.479650       0.020718       0.001668
 1164   0.056128    -5.067681     -4.475947       0.021112       0.001654
 1165   0.055684    -5.058561     -4.463348       0.021424       0.001651
 1166   0.055446    -5.052648     -4.455074       0.021690       0.001647
 1167   0.055237    -5.054683     -4.455872       0.021926       0.001641
 1168   0.055056    -5.065738     -4.467050       0.022138       0.001636
 1169   0.054771    -5.078235     -4.480579       0.022323       0.001638
 1170   0.054566    -5.088035     -4.491381       0.022483       0.001643
 1171   0.054236    -5.099146     -4.503923       0.022623       0.001650
 1172   0.053990    -5.113966     -4.521336       0.022749       0.001661
 1173   0.053731    -5.131985     -4.543318       0.022862       0.001676
 1174   0.053537    -5.152026     -4.568542       0.022964       0.001696
 1175   0.053386    -5.173785     -4.596690       0.023056       0.001720
 1176   0.053249    -5.197440     -4.628087       0.023141       0.001747
 1177   0.053221    -5.222518     -4.662170       0.023218       0.001776
 1178   0.053191    -5.248213     -4.697717       0.023291       0.001805
 1179   0.052999    -5.275088     -4.735332       0.023360       0.001833
 1180   0.052843    -5.306956     -4.780463       0.023430       0.001860
 1181   0.052744    -5.332561     -4.815449       0.023498       0.001889
 1182   0.052609    -5.331820     -4.809359       0.023569       0.001910
 1183   0.052484    -5.348551     -4.829118       0.023648       0.001932
 1184   0.052351    -5.351009     -4.826887       0.023735       0.001948
 1185   0.052245    -5.371618     -4.850943       0.023830       0.001962
 1186   0.052207    -5.392806     -4.873100       0.023931       0.001975
 1187   0.052176    -5.422884     -4.906331       0.024046       0.001972
 1188   0.052203    -5.457060     -4.945189       0.024154       0.001977
 1189   0.052130    -5.467006     -4.944409       0.024273       0.001976
 1190   0.052041    -5.480177     -4.950355       0.024402       0.001972

---------------------- Local Time Stepping Summary ----------------------
MG level: 0 -> Min. DT: 0.000498029. Max. DT: 3.63095. CFL: 10.
MG level: 1 -> Min. DT: 0.000784862. Max. DT: 5.54914. CFL: 8.11871.
MG level: 2 -> Min. DT: 0.00104838. Max. DT: 7.41749. CFL: 6.5465.
-------------------------------------------------------------------------

----------------------- Residual Evolution Summary ----------------------
log10[Maximum residual]: -4.30537.
Maximum residual point 599, located at (0.130078, 0.0495128).
-------------------------------------------------------------------------

 Iter    Time(s)     Res[Rho]     Res[RhoE]      CL(Total)      CD(Total)
 1191   0.051952    -5.498712     -4.965644       0.024534       0.001967
 1192   0.051856    -5.516685     -4.980892       0.024670       0.001961
 1193   0.051779    -5.536622     -4.999065       0.024807       0.001954
 1194   0.051744    -5.556841     -5.017632       0.024942       0.001947
 1195   0.051715    -5.579017     -5.038890       0.025076       0.001939
 1196   0.051661    -5.601964     -5.061011       0.025204       0.001930
 1197   0.051631    -5.625218     -5.083379       0.025327       0.001921
 1198   0.051590    -5.647989     -5.105067       0.025441       0.001912
 1199   0.051547    -5.670854     -5.126974       0.025547       0.001903
 1200   0.051510    -5.693832     -5.149165       0.025643       0.001895
 1201   0.051482    -5.716649     -5.171282       0.025730       0.001888
 1202   0.051449    -5.738817     -5.192679       0.025807       0.001882
 1203   0.051394    -5.760124     -5.213136       0.025874       0.001877
 1204   0.051331    -5.780742     -5.232909       0.025932       0.001874
 1205   0.051280    -5.801206     -5.252689       0.025980       0.001872
 1206   0.051246    -5.822258     -5.273420       0.026021       0.001870
 1207   0.051226    -5.844651     -5.296058       0.026054       0.001870
 1208   0.051268    -5.868888     -5.321246       0.026081       0.001871
 1209   0.051379    -5.895046     -5.349107       0.026102       0.001873
 1210   0.051376    -5.922755     -5.379128       0.026119       0.001875
 1211   0.051320    -5.951425     -5.410481       0.026131       0.001878
 1212   0.051267    -5.980165     -5.442019       0.026140       0.001882
 1213   0.051225    -6.007372     -5.471619       0.026147       0.001887
 1214   0.051196    -6.030904     -5.496380       0.026152       0.001892
 1215   0.051156    -6.051252     -5.517087       0.026157       0.001897
 1216   0.051141    -6.072609     -5.539690       0.026162       0.001903
 1217   0.051133    -6.095435     -5.564822       0.026168       0.001908
 1218   0.051122    -6.121876     -5.595382       0.026176       0.001914
 1219   0.051115    -6.156387     -5.638345       0.026185       0.001916
 1220   0.051093    -6.177407     -5.660675       0.026194       0.001919
 1221   0.051112    -6.187856     -5.667427       0.026206       0.001922
 1222   0.051085    -6.197780     -5.674216       0.026221       0.001923
 1223   0.051083    -6.211799     -5.686621       0.026237       0.001925
 1224   0.051045    -6.220637     -5.691529       0.026256       0.001925
 1225   0.051015    -6.228480     -5.695605       0.026277       0.001925
 1226   0.050994    -6.241486     -5.707497       0.026300       0.001924
 1227   0.051034    -6.256089     -5.721379       0.026323       0.001923
 1228   0.051182    -6.269874     -5.733649       0.026347       0.001921
 1229   0.051193    -6.284873     -5.747470       0.026371       0.001919
 1230   0.051173    -6.302446     -5.764721       0.026394       0.001916

---------------------- Local Time Stepping Summary ----------------------
MG level: 0 -> Min. DT: 0.000498084. Max. DT: 3.63095. CFL: 10.
MG level: 1 -> Min. DT: 0.000784855. Max. DT: 5.54912. CFL: 8.11871.
MG level: 2 -> Min. DT: 0.00104839. Max. DT: 7.41748. CFL: 6.5465.
-------------------------------------------------------------------------

----------------------- Residual Evolution Summary ----------------------
log10[Maximum residual]: -5.34293.
Maximum residual point 950, located at (0.595864, -0.119166).
-------------------------------------------------------------------------

 Iter    Time(s)     Res[Rho]     Res[RhoE]      CL(Total)      CD(Total)
 1231   0.051132    -6.321471     -5.783614       0.026416       0.001913
 1232   0.051106    -6.340059     -5.801571       0.026437       0.001910
 1233   0.051072    -6.357760     -5.818280       0.026456       0.001907
 1234   0.051107    -6.374921     -5.834437       0.026473       0.001904
 1235   0.051081    -6.390968     -5.849355       0.026487       0.001902
 1236   0.051061    -6.406105     -5.863360       0.026499       0.001899
 1237   0.051029    -6.421212     -5.877638       0.026508       0.001897
 1238   0.051002    -6.436853     -5.892860       0.026515       0.001895
 1239   0.050980    -6.453549     -5.909608       0.026519       0.001893
 1240   0.050952    -6.471746     -5.928338       0.026520       0.001892
 1241   0.050925    -6.491454     -5.948936       0.026520       0.001891
 1242   0.050892    -6.512264     -5.970752       0.026517       0.001891
 1243   0.050868    -6.532946     -5.992161       0.026512       0.001891
 1244   0.050839    -6.552398     -6.012022       0.026506       0.001891
 1245   0.050811    -6.569426     -6.029255       0.026498       0.001892
 1246   0.050790    -6.583541     -6.043171       0.026490       0.001893
 1247   0.050824    -6.595889     -6.055118       0.026480       0.001894
 1248   0.050862    -6.608975     -6.068313       0.026470       0.001895
 1249   0.050837    -6.625533     -6.085885       0.026460       0.001896
 1250   0.050831    -6.644543     -6.105645       0.026450       0.001898
 1251   0.050816    -6.663367     -6.123964       0.026441       0.001900
 1252   0.050808    -6.685396     -6.145997       0.026432       0.001901
 1253   0.050823    -6.712034     -6.174100       0.026423       0.001903
 1254   0.050811    -6.735752     -6.198538       0.026416       0.001905
 1255   0.050807    -6.754570     -6.216898       0.026409       0.001906
 1256   0.050897    -6.762849     -6.221970       0.026404       0.001908
 1257   0.050996    -6.757926     -6.210940       0.026401       0.001910
 1258   0.051244    -6.768424     -6.223160       0.026400       0.001911
 1259   0.051275    -6.826943     -6.303906       0.026399       0.001912
 1260   0.051297    -6.871151     -6.358015       0.026398       0.001911
 1261   0.051371    -6.890036     -6.369366       0.026397       0.001911
 1262   0.051446    -6.868392     -6.330126       0.026398       0.001911
 1263   0.051452    -6.838097     -6.285332       0.026401       0.001911
 1264   0.051441    -6.820162     -6.260095       0.026405       0.001910
 1265   0.051448    -6.827652     -6.269611       0.026408       0.001910
 1266   0.051525    -6.860649     -6.312598       0.026412       0.001910
 1267   0.051501    -6.900311     -6.362325       0.026416       0.001909
 1268   0.051489    -6.927781     -6.392438       0.026420       0.001909
 1269   0.051459    -6.937728     -6.398179       0.026424       0.001908
 1270   0.051437    -6.953753     -6.412252       0.026428       0.001907

---------------------- Local Time Stepping Summary ----------------------
MG level: 0 -> Min. DT: 0.000498038. Max. DT: 3.63095. CFL: 10.
MG level: 1 -> Min. DT: 0.000784787. Max. DT: 5.54912. CFL: 8.11871.
MG level: 2 -> Min. DT: 0.00104831. Max. DT: 7.41747. CFL: 6.5465.
-------------------------------------------------------------------------

----------------------- Residual Evolution Summary ----------------------
log10[Maximum residual]: -5.94792.
Maximum residual point 404, located at (0.732768, 0.0456468).
-------------------------------------------------------------------------

 Iter    Time(s)     Res[Rho]     Res[RhoE]      CL(Total)      CD(Total)
 1271   0.051411    -6.974412     -6.433712       0.026432       0.001907
 1272   0.051395    -6.992942     -6.452474       0.026436       0.001906
 1273   0.051377    -7.003810     -6.461223       0.026439       0.001905
 1274   0.051358    -7.016914     -6.473652       0.026442       0.001904
 1275   0.051334    -7.035045     -6.493265       0.026445       0.001903
 1276   0.051312    -7.054528     -6.514489       0.026446       0.001903
 1277   0.051287    -7.071779     -6.532322       0.026447       0.001902
 1278   0.051263    -7.087380     -6.547894       0.026448       0.001902
 1279   0.051242    -7.101777     -6.561887       0.026448       0.001901
 1280   0.051233    -7.111927     -6.569854       0.026447       0.001902
 1281   0.051223    -7.118951     -6.574634       0.026446       0.001901
 1282   0.051200    -7.151313     -6.617974       0.026445       0.001901
 1283   0.051173    -7.159357     -6.623301       0.026443       0.001901
 1284   0.051158    -7.152126     -6.607689       0.026441       0.001902
 1285   0.051164    -7.146343     -6.594975       0.026438       0.001902
 1286   0.051198    -7.145278     -6.589290       0.026436       0.001902
 1287   0.051207    -7.152596     -6.594362       0.026433       0.001902
 1288   0.051196    -7.168738     -6.610195       0.026430       0.001902
 1289   0.051182    -7.190601     -6.632683       0.026427       0.001903
 1290   0.051165    -7.213823     -6.656427       0.026424       0.001903
 1291   0.051144    -7.234452     -6.676680       0.026421       0.001903
 1292   0.051123    -7.251830     -6.692914       0.026419       0.001904
 1293   0.051129    -7.267533     -6.707303       0.026416       0.001904
 1294   0.051112    -7.282830     -6.721391       0.026414       0.001904
 1295   0.051095    -7.298607     -6.736187       0.026411       0.001905
 1296   0.051097    -7.315725     -6.752766       0.026409       0.001905
 1297   0.051074    -7.334780     -6.771941       0.026408       0.001905
 1298   0.051058    -7.355580     -6.793509       0.026406       0.001905
 1299   0.051049    -7.377576     -6.816737       0.026405       0.001905
 1300   0.051036    -7.400662     -6.841387       0.026404       0.001906
 1301   0.051019    -7.424821     -6.867392       0.026403       0.001906
 1302   0.051000    -7.449902     -6.894525       0.026402       0.001906
 1303   0.050983    -7.475697     -6.922532       0.026402       0.001906
 1304   0.050965    -7.502085     -6.951344       0.026402       0.001906
 1305   0.050948    -7.529056     -6.981062       0.026402       0.001906
 1306   0.050965    -7.555740     -7.010477       0.026402       0.001906
 1307   0.050987    -7.578576     -7.034483       0.026402       0.001905
 1308   0.050995    -7.594341     -7.048659       0.026402       0.001905
 1309   0.050977    -7.606674     -7.058233       0.026403       0.001905
 1310   0.050958    -7.615359     -7.063606       0.026403       0.001905

---------------------- Local Time Stepping Summary ----------------------
MG level: 0 -> Min. DT: 0.000498024. Max. DT: 3.63095. CFL: 10.
MG level: 1 -> Min. DT: 0.00078477. Max. DT: 5.54912. CFL: 8.11871.
MG level: 2 -> Min. DT: 0.00104829. Max. DT: 7.41748. CFL: 6.5465.
-------------------------------------------------------------------------

----------------------- Residual Evolution Summary ----------------------
log10[Maximum residual]: -6.44951.
Maximum residual point 404, located at (0.732768, 0.0456468).
-------------------------------------------------------------------------

 Iter    Time(s)     Res[Rho]     Res[RhoE]      CL(Total)      CD(Total)
 1311   0.050948    -7.619907     -7.064440       0.026404       0.001905
 1312   0.050931    -7.622659     -7.063775       0.026404       0.001905
 1313   0.050949    -7.625885     -7.064357       0.026405       0.001904
 1314   0.050938    -7.631190     -7.067943       0.026405       0.001904
 1315   0.050919    -7.639401     -7.075305       0.026405       0.001904
 1316   0.050903    -7.650849     -7.086683       0.026405       0.001904
 1317   0.050884    -7.665546     -7.102014       0.026406       0.001904
 1318   0.050868    -7.683339     -7.121087       0.026406       0.001904
 1319   0.050854    -7.704208     -7.143857       0.026406       0.001904
 1320   0.050854    -7.728270     -7.170460       0.026406       0.001904
 1321   0.050845    -7.755637     -7.201053       0.026406       0.001904
 1322   0.050836    -7.786059     -7.235346       0.026405       0.001904
 1323   0.050827    -7.818332     -7.271731       0.026405       0.001904
 1324   0.050822    -7.850487     -7.307428       0.026405       0.001904
 1325   0.050806    -7.881335     -7.340819       0.026404       0.001904
 1326   0.050834    -7.910793     -7.372126       0.026404       0.001904
 1327   0.050870    -7.938839     -7.401679       0.026404       0.001904
 1328   0.050889    -7.963683     -7.427089       0.026403       0.001904
 1329   0.050873    -7.981348     -7.443025       0.026403       0.001904
 1330   0.050868    -7.996152     -7.455828       0.026402       0.001904
 1331   0.050854    -8.014487     -7.474243       0.026402       0.001904
 1332   0.050844    -8.032508     -7.492711       0.026402       0.001904
 1333   0.050845    -8.048576     -7.508689       0.026401       0.001904
 1334   0.050838    -8.065173     -7.525623       0.026401       0.001904
 1335   0.050850    -8.083342     -7.544920       0.026401       0.001904
 1336   0.050875    -8.103594     -7.567039       0.026401       0.001904
 1337   0.050862    -8.126365     -7.592368       0.026400       0.001904
 1338   0.050849    -8.151818     -7.621411       0.026400       0.001905
 1339   0.050920    -8.175790     -7.648578       0.026400       0.001905
 1340   0.050909    -8.192414     -7.664328       0.026400       0.001905
 1341   0.050894    -8.201833     -7.670035       0.026401       0.001905
 1342   0.050880    -8.205373     -7.669124       0.026401       0.001905
 1343   0.050868    -8.211711     -7.673120       0.026401       0.001905
 1344   0.050852    -8.222461     -7.683477       0.026401       0.001905
 1345   0.050845    -8.233203     -7.693209       0.026401       0.001905
 1346   0.050866    -8.244528     -7.703068       0.026402       0.001905
 1347   0.050886    -8.257941     -7.715662       0.026402       0.001905
 1348   0.050873    -8.273007     -7.730640       0.026402       0.001904
 1349   0.050860    -8.287400     -7.744693       0.026403       0.001904
 1350   0.050846    -8.299133     -7.755168       0.026403       0.001904

---------------------- Local Time Stepping Summary ----------------------
MG level: 0 -> Min. DT: 0.000498026. Max. DT: 3.63095. CFL: 10.
MG level: 1 -> Min. DT: 0.000784772. Max. DT: 5.54912. CFL: 8.11871.
MG level: 2 -> Min. DT: 0.00104829. Max. DT: 7.41748. CFL: 6.5465.
-------------------------------------------------------------------------

----------------------- Residual Evolution Summary ----------------------
log10[Maximum residual]: -7.17484.
Maximum residual point 404, located at (0.732768, 0.0456468).
-------------------------------------------------------------------------

 Iter    Time(s)     Res[Rho]     Res[RhoE]      CL(Total)      CD(Total)
 1351   0.050833    -8.309648     -7.764377       0.026403       0.001904
 1352   0.050829    -8.320717     -7.774861       0.026403       0.001904
 1353   0.050839    -8.332973     -7.787314       0.026404       0.001904
 1354   0.050835    -8.346571     -7.801727       0.026404       0.001904
 1355   0.050895    -8.361823     -7.818377       0.026404       0.001904
 1356   0.050973    -8.379089     -7.837664       0.026404       0.001904
 1357   0.051008    -8.398161     -7.859217       0.026404       0.001904
 1358   0.051013    -8.418176     -7.881741       0.026404       0.001904
 1359   0.051026    -8.437898     -7.903406       0.026404       0.001904
 1360   0.051029    -8.456262     -7.922704       0.026404       0.001904
 1361   0.051054    -8.472502     -7.938692       0.026404       0.001904
 1362   0.051054    -8.486341     -7.951226       0.026404       0.001904
 1363   0.051041    -8.498376     -7.961441       0.026404       0.001904
 1364   0.051040    -8.509492     -7.970811       0.026404       0.001904
 1365   0.051062    -8.520341     -7.980342       0.026403       0.001904
 1366   0.051057    -8.530905     -7.989857       0.026403       0.001904
 1367   0.051043    -8.539701     -7.997065       0.026403       0.001904
 1368   0.051039    -8.546296     -8.001447       0.026403       0.001904
 1369   0.051033    -8.552714     -8.005918       0.026403       0.001904
 1370   0.051021    -8.560478     -8.012500       0.026403       0.001904
 1371   0.051017    -8.570119     -8.021729       0.026403       0.001904
 1372   0.051013    -8.581642     -8.033458       0.026403       0.001904
 1373   0.051006    -8.595046     -8.047605       0.026402       0.001904
 1374   0.051005    -8.610328     -8.064121       0.026402       0.001904
 1375   0.051011    -8.627463     -8.082929       0.026402       0.001904
 1376   0.050996    -8.646440     -8.104000       0.026402       0.001904
 1377   0.050986    -8.667225     -8.127295       0.026402       0.001904
 1378   0.050978    -8.689456     -8.152305       0.026402       0.001904
 1379   0.050971    -8.712153     -8.177598       0.026402       0.001904
 1380   0.050959    -8.733647     -8.200746       0.026402       0.001904
 1381   0.050948    -8.751884     -8.218955       0.026402       0.001904
 1382   0.050943    -8.765928     -8.231352       0.026403       0.001904
 1383   0.050933    -8.777580     -8.240850       0.026403       0.001904
 1384   0.050927    -8.788869     -8.250296       0.026403       0.001904
 1385   0.050944    -8.799753     -8.259459       0.026403       0.001904
 1386   0.050942    -8.809958     -8.267863       0.026403       0.001904
 1387   0.050936    -8.819902     -8.276109       0.026403       0.001904
 1388   0.050925    -8.830319     -8.285190       0.026403       0.001904
 1389   0.050915    -8.841628     -8.295606       0.026403       0.001904
 1390   0.050903    -8.853931     -8.307421       0.026403       0.001904

---------------------- Local Time Stepping Summary ----------------------
MG level: 0 -> Min. DT: 0.000498026. Max. DT: 3.63095. CFL: 10.
MG level: 1 -> Min. DT: 0.000784772. Max. DT: 5.54912. CFL: 8.11871.
MG level: 2 -> Min. DT: 0.00104829. Max. DT: 7.41748. CFL: 6.5465.
-------------------------------------------------------------------------

----------------------- Residual Evolution Summary ----------------------
log10[Maximum residual]: -7.74934.
Maximum residual point 404, located at (0.732768, 0.0456468).
-------------------------------------------------------------------------

 Iter    Time(s)     Res[Rho]     Res[RhoE]      CL(Total)      CD(Total)
 1391   0.050894    -8.867306     -8.320690       0.026403       0.001904
 1392   0.050900    -8.881897     -8.335568       0.026403       0.001904
 1393   0.050888    -8.897900     -8.352271       0.026403       0.001904
 1394   0.050877    -8.915524     -8.371030       0.026403       0.001904
 1395   0.050870    -8.934893     -8.391979       0.026403       0.001904
 1396   0.050859    -8.955756     -8.414763       0.026403       0.001904
 1397   0.050846    -8.977218     -8.438114       0.026403       0.001904
 1398   0.050839    -8.997848     -8.460039       0.026403       0.001904
 1399   0.050830    -9.015785     -8.478073       0.026403       0.001904
 1400   0.050821    -9.029998     -8.491055       0.026403       0.001904
 1401   0.050812    -9.041905     -8.501213       0.026403       0.001904

-------------------------- File Output Summary --------------------------
Writing comma-separated values (CSV) surface files.
Merging connectivities in the Master node.
Merging coordinates in the Master node.
Merging solution in the Master node.
Writing SU2 native restart file.
Writing Paraview ASCII volume solution file.
Writing Paraview ASCII surface solution file.
Writing the forces breakdown file.
-------------------------------------------------------------------------

 1402   0.051060    -9.053319     -8.511083       0.026403       0.001904
 1403   0.051052    -9.064788     -8.521237       0.026403       0.001904
 1404   0.051075    -9.076355     -8.531531       0.026403       0.001904
 1405   0.051074    -9.088033     -8.541911       0.026403       0.001904
 1406   0.051069    -9.100202     -8.552921       0.026403       0.001904
 1407   0.051056    -9.113301     -8.565180       0.026403       0.001904
 1408   0.051048    -9.127486     -8.578899       0.026403       0.001904
 1409   0.051041    -9.142751     -8.594072       0.026403       0.001904
 1410   0.051028    -9.159120     -8.610737       0.026403       0.001904
 1411   0.051038    -9.176739     -8.629088       0.026403       0.001904
 1412   0.051033    -9.195868     -8.649463       0.026403       0.001904
 1413   0.051035    -9.216851     -8.672310       0.026403       0.001904
 1414   0.051034    -9.239928     -8.697957       0.026403       0.001904
 1415   0.051022    -9.264749     -8.725915       0.026403       0.001904
 1416   0.051018    -9.289770     -8.753904       0.026403       0.001904
 1417   0.051015    -9.312415     -8.778059       0.026403       0.001904
 1418   0.051009    -9.330046     -8.794796       0.026403       0.001904
 1419   0.050997    -9.341697     -8.803500       0.026403       0.001904
 1420   0.050986    -9.350714     -8.809258       0.026403       0.001904
 1421   0.050982    -9.360270     -8.816322       0.026403       0.001904
 1422   0.050973    -9.369848     -8.823734       0.026403       0.001904
 1423   0.050975    -9.379066     -8.830835       0.026403       0.001904
 1424   0.051013    -9.388320     -8.838176       0.026403       0.001904
 1425   0.051011    -9.397992     -8.846271       0.026403       0.001904
 1426   0.051003    -9.408207     -8.855240       0.026403       0.001904
 1427   0.050994    -9.419016     -8.865107       0.026403       0.001904
 1428   0.050986    -9.430614     -8.876107       0.026403       0.001904
 1429   0.050976    -9.443260     -8.888553       0.026403       0.001904
 1430   0.050967    -9.457233     -8.902760       0.026403       0.001904

---------------------- Local Time Stepping Summary ----------------------
MG level: 0 -> Min. DT: 0.000498025. Max. DT: 3.63095. CFL: 10.
MG level: 1 -> Min. DT: 0.000784772. Max. DT: 5.54912. CFL: 8.11871.
MG level: 2 -> Min. DT: 0.00104829. Max. DT: 7.41748. CFL: 6.5465.
-------------------------------------------------------------------------

----------------------- Residual Evolution Summary ----------------------
log10[Maximum residual]: -8.3849.
Maximum residual point 404, located at (0.732768, 0.0456468).
-------------------------------------------------------------------------

 Iter    Time(s)     Res[Rho]     Res[RhoE]      CL(Total)      CD(Total)
 1431   0.050966    -9.472858     -8.919092       0.026403       0.001904
 1432   0.050962    -9.490546     -8.938032       0.026403       0.001904
 1433   0.050955    -9.510721     -8.960105       0.026403       0.001904
 1434   0.050945    -9.533612     -8.985608       0.026403       0.001904
 1435   0.050934    -9.558848     -9.014049       0.026403       0.001904
 1436   0.050928    -9.584995     -9.043442       0.026403       0.001904
 1437   0.050919    -9.609582     -9.070316       0.026403       0.001904
 1438   0.050911    -9.629722     -9.090769       0.026403       0.001904
 1439   0.050902    -9.644043     -9.103334       0.026403       0.001904
 1440   0.050895    -9.655078     -9.111896       0.026403       0.001904
 1441   0.050886    -9.665402     -9.120042       0.026403       0.001904
 1442   0.050876    -9.675003     -9.127584       0.026403       0.001904
 1443   0.050871    -9.683885     -9.134401       0.026403       0.001904
 1444   0.050874    -9.692858     -9.141560       0.026403       0.001904
 1445   0.050876    -9.702689     -9.150040       0.026403       0.001904
 1446   0.050868    -9.713611     -9.160070       0.026403       0.001904
 1447   0.050867    -9.725647     -9.171617       0.026403       0.001904
 1448   0.050858    -9.738873     -9.184761       0.026403       0.001904
 1449   0.050856    -9.753438     -9.199689       0.026403       0.001904
 1450   0.050849    -9.769553     -9.216657       0.026403       0.001904
 1451   0.050860    -9.787528     -9.236051       0.026403       0.001904
 1452   0.050852    -9.807739     -9.258348       0.026403       0.001904
 1453   0.050878    -9.830413     -9.283843       0.026403       0.001904
 1454   0.050909    -9.855243     -9.312087       0.026403       0.001904
 1455   0.050931    -9.881014     -9.341295       0.026403       0.001904
 1456   0.050941    -9.905724     -9.368513       0.026403       0.001904
 1457   0.050942    -9.927270     -9.390847       0.026403       0.001904
 1458   0.050945    -9.943579     -9.405906       0.026403       0.001904
 1459   0.050956    -9.954710     -9.414374       0.026403       0.001904
 1460   0.050960    -9.964906     -9.422269       0.026403       0.001904
 1461   0.050957    -9.975818     -9.431697       0.026403       0.001904
 1462   0.050955    -9.986386     -9.440940       0.026403       0.001904
 1463   0.050974    -9.996400     -9.449578       0.026403       0.001904
 1464   0.050982   -10.006412     -9.458391       0.026403       0.001904

-------------------------- File Output Summary --------------------------
Writing comma-separated values (CSV) surface files.
Merging connectivities in the Master node.
Merging coordinates in the Master node.
Merging solution in the Master node.
Writing SU2 native restart file.
Writing Paraview ASCII volume solution file.
Writing Paraview ASCII surface solution file.
Writing the forces breakdown file.
-------------------------------------------------------------------------

History file, closed.

------------------------- Solver Postprocessing -------------------------
Deleted CNumerics container.
Deleted CIntegration container.
Deleted CSolver container.
Deleted CIteration container.
Deleted CInterpolator container.
Deleted CTransfer container.
Deleted CGeometry container.
Deleted CFreeFormDefBox class.
Deleted CSurfaceMovement class.
Deleted CVolumetricMovement class.
Deleted CConfig container.
Deleted COutput class.
-------------------------------------------------------------------------

Completed in 16.093063 seconds on 1 core.

------------------------- Exit Success (SU2_CFD) ------------------------

