
-------------------------------------------------------------------------
|    ___ _   _ ___                                                      |
|   / __| | | |_  )   Release 5.0.0  "Raven"                            |
|   \__ \ |_| |/ /                                                      |
|   |___/\___//___|   Suite (Computational Fluid Dynamics Code)         |
|                                                                       |
-------------------------------------------------------------------------
| SU2 Original Developers: Dr. Francisco D. Palacios.                   |
|                          Dr. Thomas D. Economon.                      |
-------------------------------------------------------------------------
| SU2 Developers:                                                       |
| - Prof. Juan J. Alonso's group at Stanford University.                |
| - Prof. Piero Colonna's group at Delft University of Technology.      |
| - Prof. Nicolas R. Gauger's group at Kaiserslautern U. of Technology. |
| - Prof. Alberto Guardone's group at Polytechnic University of Milan.  |
| - Prof. Rafael Palacios' group at Imperial College London.            |
| - Prof. Edwin van der Weide's group at the University of Twente.      |
| - Prof. Vincent Terrapon's group at the University of Liege.          |
-------------------------------------------------------------------------
| Copyright (C) 2012-2017 SU2, the open-source CFD code.                |
|                                                                       |
| SU2 is free software; you can redistribute it and/or                  |
| modify it under the terms of the GNU Lesser General Public            |
| License as published by the Free Software Foundation; either          |
| version 2.1 of the License, or (at your option) any later version.    |
|                                                                       |
| SU2 is distributed in the hope that it will be useful,                |
| but WITHOUT ANY WARRANTY; without even the implied warranty of        |
| MERCHANTABILITY or FITNESS FOR A PARTICULAR PURPOSE. See the GNU      |
| Lesser General Public License for more details.                       |
|                                                                       |
| You should have received a copy of the GNU Lesser General Public      |
| License along with SU2. If not, see <http://www.gnu.org/licenses/>.   |
-------------------------------------------------------------------------

------------------------ Physical Case Definition -----------------------
Compressible Euler equations.
Mach number: 0.8.
Angle of attack (AoA): 1.25 deg, and angle of sideslip (AoS): 0 deg.
Read flow solution from: solution_flow.dat.
Non-Dimensional simulation (P=1.0, Rho=1.0, T=1.0 at the farfield).
The reference length/area (force coefficient) is 1.
The reference length (moment computation) is 1.
Reference origin (moment computation) is (0.25, 0, 0).
Surface(s) where the force coefficients are evaluated: airfoil.
Surface(s) plotted in the output file: airfoil.
Surface(s) affected by the design variables: airfoil.
Input mesh file name: mesh_NACA0012_inv_deform.su2

---------------------- Space Numerical Integration ----------------------
Jameson-Schmidt-Turkel scheme for the flow inviscid terms.
JST viscous coefficients (1st, 2nd & 4th): 0.15, 0.5, 0.02.
The method includes a grid stretching correction (p = 0.3).
Second order integration.
Gradient computation using Green-Gauss theorem.

---------------------- Time Numerical Integration -----------------------
Local time stepping (steady state simulation).
Euler implicit method for the flow equations.
V Multigrid Cycle, with 2 multigrid levels.
Damping factor for the residual restriction: 1.
Damping factor for the correction prolongation: 1.
No CFL adaptation.
Multigrid Level:                       0     1     2
Courant-Friedrichs-Lewy number:       10
MG PreSmooth coefficients:             1     2     3
MG PostSmooth coefficients:            0     0     0
MG CorrecSmooth coefficients:          0     0     0

------------------------- Convergence Criteria --------------------------
Maximum number of iterations: 1000.
Reduce the density residual 6 orders of magnitude.
The minimum bound for the density residual is 10^(-13).
Start convergence criteria at iteration 10.

-------------------------- Output Information ---------------------------
Writing a flow solution every 250 iterations.
Writing the convergence history every 1 iterations.
The output file format is Tecplot ASCII (.dat).
Convergence history file name: history_direct.
Forces breakdown file name: forces_breakdown.dat.
Surface flow coefficients file name: surface_flow.
Flow variables file name: flow.
Restart flow file name: restart_flow.dat.

------------------- Config File Boundary Information --------------------
Euler wall boundary marker(s): airfoil.
Far-field boundary marker(s): farfield.

---------------------- Read Grid File Information -----------------------
Two dimensional problem.
5233 points before parallel partitioning.
Performing linear partitioning of the grid nodes.
10216 interior elements before parallel partitioning.
Calling the partitioning functions.
Building the graph adjacency structure.
Distributing elements across all ranks.
2 surface markers.
200 boundary elements in index 0 (Marker = airfoil).
50 boundary elements in index 1 (Marker = farfield).
Calling ParMETIS...
Finished partitioning using ParMETIS (547 edge cuts).
Communicating partition data and creating halo layers.
10763 interior elements including halo cells. 
10763 triangles.
5796 vertices including ghost points. 
Establishing MPI communication patterns.

------------------------- Geometry Preprocessing ------------------------
Setting point connectivity.
Renumbering points (Reverse Cuthill McKee Ordering).
Recomputing point connectivity.
Setting element connectivity.
Checking the numerical grid orientation.
Identifying edges and vertices.
Computing centers of gravity.
Setting the control volume structure.
Area of the computational grid: 1.3e+03.
Searching for the closest normal neighbors to the surfaces.
Compute the surface curvature.
Max K: 7.84e+03. Mean K: 35. Standard deviation K: 494.
Checking for periodicity.
Setting the multigrid structure.
MG level: 0 -> CVs: 5796. Agglomeration rate 1/1.00. CFL 10.
MG level: 1 -> CVs: 1800. Agglomeration rate 1/3.22. CFL 8.36.
MG level: 2 -> CVs: 626. Agglomeration rate 1/2.88. CFL 7.39.
Computing wall distances.
Wetted area = 2.04 m.
Area projection in the x-plane = 0.113 m, y-plane = 1 m.

------------------------- Driver information --------------------------
A Fluid driver has been instantiated.

------------------------ Iteration Preprocessing ------------------------
Zone 1: Euler/Navier-Stokes/RANS flow iteration.

------------------------- Solver Preprocessing --------------------------
Inviscid flow: Computing density based on free-stream
temperature and pressure using the ideal gas law.
Force coefficients computed using free-stream values.
-- Input conditions:
Fluid Model: STANDARD_AIR 
Specific gas constant: 287.058 N.m/kg.K.
Specific gas constant (non-dim): 1
Specific Heat Ratio: 1.4
Free-stream static pressure: 101325 Pa.
Free-stream total pressure: 154454 Pa.
Free-stream temperature: 288.15 K.
Free-stream density: 1.22498 kg/m^3.
Free-stream velocity: (272.173, 5.93883) m/s. Magnitude: 272.238 m/s (529.186 KTS).
Free-stream total energy per unit mass: 243846 m^2/s^2.
-- Reference values:
Reference specific gas constant: 287.058 N.m/kg.K.
Reference pressure: 101325 Pa.
Reference temperature: 288.15 K.
Reference density: 1.22498 kg/m^3.
Reference velocity: 287.603 m/s.
Reference energy per unit mass: 82715.8 m^2/s^2.
-- Resulting non-dimensional state:
Mach number (non-dim): 0.8
Specific gas constant (non-dim): 1
Free-stream temperature (non-dim): 1
Free-stream pressure (non-dim): 1
Free-stream density (non-dim): 1
Free-stream velocity (non-dim): (0.946348, 0.0206494). Magnitude: 0.946573
Free-stream total energy per unit mass (non-dim): 2.948

Initialize Jacobian structure (Euler). MG level: 0.
Initialize Jacobian structure (Euler). MG level: 1.
Initialize Jacobian structure (Euler). MG level: 2.

----------------- Integration and Numerics Preprocessing ----------------
Integration Preprocessing.
Numerics Preprocessing.

------------------------------ Begin Solver -----------------------------

---------------------- Local Time Stepping Summary ----------------------
MG level: 0 -> Min. DT: 0.000492936. Max. DT: 3.62533. CFL: 10.
MG level: 1 -> Min. DT: 0.000791793. Max. DT: 5.70552. CFL: 8.35917.
MG level: 2 -> Min. DT: 0.00156747. Max. DT: 8.30185. CFL: 7.39444.
-------------------------------------------------------------------------

----------------------- Residual Evolution Summary ----------------------
log10[Maximum residual]: -3.45931.
Maximum residual point 114, located at (0.05149, 0.0319778).
-------------------------------------------------------------------------

 Iter    Time(s)     Res[Rho]     Res[RhoE]      CL(Total)      CD(Total)
  462   0.020258    -4.559581     -3.963198       0.322650       0.011776
  463   0.019747    -4.602931     -4.001614       0.312999       0.012005
  464   0.019516    -4.657864     -4.065450       0.309711       0.011699
  465   0.019320    -4.638475     -4.042012       0.306339       0.011616
  466   0.019214    -4.572324     -3.975193       0.302247       0.011562
  467   0.019248    -4.496071     -3.898322       0.298539       0.011460
  468   0.018975    -4.426299     -3.828165       0.295048       0.011315
  469   0.018928    -4.367076     -3.769537       0.291822       0.011110
  470   0.019621    -4.319542     -3.723557       0.288885       0.010848
  471   0.019603    -4.283124     -3.689390       0.286196       0.010554
  472   0.019496    -4.256419     -3.665134       0.283751       0.010249
  473   0.019400    -4.238973     -3.650307       0.281500       0.009926
  474   0.019330    -4.236276     -3.652208       0.279347       0.009630
  475   0.019511    -4.257122     -3.683667       0.277540       0.009557
  476   0.020093    -4.285841     -3.726323       0.276112       0.009589
  477   0.020666    -4.287267     -3.730140       0.274435       0.009494
  478   0.020783    -4.307370     -3.758069       0.272754       0.009414
  479   0.020692    -4.340513     -3.803773       0.271085       0.009380
  480   0.020624    -4.371261     -3.843815       0.269381       0.009295
  481   0.020758    -4.375785     -3.844665       0.267484       0.009163
  482   0.020820    -4.371791     -3.834814       0.265638       0.009034
  483   0.020731    -4.373404     -3.833716       0.263925       0.008923
  484   0.020609    -4.379607     -3.839351       0.262328       0.008832
  485   0.020460    -4.389469     -3.849758       0.260870       0.008763
  486   0.020369    -4.401794     -3.862457       0.259577       0.008720
  487   0.020268    -4.413531     -3.873169       0.258452       0.008696
  488   0.020167    -4.421921     -3.879092       0.257480       0.008683
  489   0.020114    -4.428912     -3.883354       0.256632       0.008672
  490   0.020049    -4.436607     -3.888748       0.255881       0.008658
  491   0.019974    -4.445381     -3.895825       0.255207       0.008636
  492   0.019897    -4.456556     -3.906076       0.254595       0.008605
  493   0.019849    -4.470854     -3.920246       0.254035       0.008568
  494   0.019785    -4.488329     -3.938402       0.253521       0.008527
  495   0.019737    -4.508899     -3.960287       0.253049       0.008488
  496   0.019718    -4.532592     -3.985631       0.252620       0.008453
  497   0.019690    -4.560406     -4.015465       0.252238       0.008424
  498   0.019623    -4.592222     -4.049636       0.251905       0.008402
  499   0.019634    -4.627480     -4.087778       0.251619       0.008387
  500   0.019698    -4.665921     -4.129607       0.251377       0.008379
  501   0.019662    -4.708409     -4.175770       0.251171       0.008376

---------------------- Local Time Stepping Summary ----------------------
MG level: 0 -> Min. DT: 0.000494247. Max. DT: 3.62525. CFL: 10.
MG level: 1 -> Min. DT: 0.00079363. Max. DT: 5.70601. CFL: 8.35917.
MG level: 2 -> Min. DT: 0.00156221. Max. DT: 8.3024. CFL: 7.39444.
-------------------------------------------------------------------------

----------------------- Residual Evolution Summary ----------------------
log10[Maximum residual]: -3.54371.
Maximum residual point 1182, located at (0.629333, 0.130227).
-------------------------------------------------------------------------

 Iter    Time(s)     Res[Rho]     Res[RhoE]      CL(Total)      CD(Total)
  502   0.019629    -4.753738     -4.224909       0.250997       0.008376
  503   0.019586    -4.801598     -4.276639       0.250843       0.008379
  504   0.019565    -4.852259     -4.331231       0.250699       0.008382
  505   0.019548    -4.905831     -4.388482       0.250556       0.008385
  506   0.019510    -4.962285     -4.448601       0.250403       0.008386
  507   0.019486    -5.021338     -4.510992       0.250230       0.008385
  508   0.019466    -5.086322     -4.578507       0.250038       0.008383
  509   0.019435    -5.156884     -4.650949       0.249818       0.008378
  510   0.019405    -5.233415     -4.729149       0.249568       0.008370
  511   0.019383    -5.315962     -4.813127       0.249285       0.008358
  512   0.019365    -5.400775     -4.897716       0.248975       0.008345
  513   0.019346    -5.477351     -4.969265       0.248654       0.008332
  514   0.019317    -5.530537     -5.010637       0.248333       0.008321
  515   0.019319    -5.562158     -5.028747       0.248009       0.008309
  516   0.019307    -5.591053     -5.049341       0.247682       0.008294
  517   0.019301    -5.625746     -5.082289       0.247359       0.008278
  518   0.019274    -5.657964     -5.114861       0.247048       0.008263
  519   0.019286    -5.672182     -5.125683       0.246755       0.008250
  520   0.019260    -5.672006     -5.121114       0.246482       0.008238
  521   0.019248    -5.668607     -5.116069       0.246229       0.008226
  522   0.019235    -5.663819     -5.111862       0.245996       0.008217
  523   0.019245    -5.655086     -5.103918       0.245784       0.008209
  524   0.019220    -5.642008     -5.091166       0.245593       0.008201
  525   0.019200    -5.627048     -5.076773       0.245420       0.008195
  526   0.019172    -5.612548     -5.063528       0.245265       0.008190
  527   0.019148    -5.599740     -5.052528       0.245127       0.008185
  528   0.019297    -5.589053     -5.043910       0.245003       0.008181
  529   0.019418    -5.580858     -5.037941       0.244892       0.008178
  530   0.019445    -5.575641     -5.035141       0.244794       0.008175
  531   0.019436    -5.573811     -5.035921       0.244707       0.008172
  532   0.019410    -5.575584     -5.040424       0.244631       0.008170
  533   0.019434    -5.581072     -5.048674       0.244564       0.008168
  534   0.019458    -5.590803     -5.061080       0.244506       0.008167
  535   0.019442    -5.604487     -5.077354       0.244455       0.008166
  536   0.019427    -5.621886     -5.097285       0.244411       0.008165
  537   0.019417    -5.643232     -5.121234       0.244372       0.008164
  538   0.019399    -5.669096     -5.149982       0.244339       0.008164
  539   0.019386    -5.699743     -5.183790       0.244310       0.008164
  540   0.019368    -5.735281     -5.222663       0.244284       0.008164
  541   0.019354    -5.775875     -5.266697       0.244261       0.008164

---------------------- Local Time Stepping Summary ----------------------
MG level: 0 -> Min. DT: 0.000493942. Max. DT: 3.62526. CFL: 10.
MG level: 1 -> Min. DT: 0.000793075. Max. DT: 5.70607. CFL: 8.35917.
MG level: 2 -> Min. DT: 0.00156203. Max. DT: 8.30247. CFL: 7.39444.
-------------------------------------------------------------------------

----------------------- Residual Evolution Summary ----------------------
log10[Maximum residual]: -4.54011.
Maximum residual point 667, located at (0.570178, 0.0939019).
-------------------------------------------------------------------------

 Iter    Time(s)     Res[Rho]     Res[RhoE]      CL(Total)      CD(Total)
  542   0.019335    -5.821802     -5.316074       0.244240       0.008164
  543   0.019325    -5.872839     -5.370161       0.244221       0.008164
  544   0.019305    -5.927138     -5.426869       0.244203       0.008164
  545   0.019287    -5.983822     -5.485306       0.244185       0.008164
  546   0.019299    -6.042526     -5.545122       0.244167       0.008164
  547   0.019341    -6.101152     -5.603589       0.244150       0.008164
  548   0.019326    -6.156298     -5.656763       0.244132       0.008164
  549   0.019317    -6.207281     -5.704825       0.244116       0.008164
  550   0.019317    -6.254040     -5.748413       0.244099       0.008164
  551   0.019311    -6.295505     -5.786335       0.244083       0.008164
  552   0.019293    -6.331040     -5.817896       0.244068       0.008163
  553   0.019284    -6.361115     -5.844057       0.244053       0.008163
  554   0.019269    -6.386077     -5.865500       0.244039       0.008162
  555   0.019253    -6.406139     -5.882275       0.244025       0.008162
  556   0.019246    -6.422946     -5.896186       0.244013       0.008162
  557   0.019230    -6.439306     -5.910618       0.244001       0.008162
  558   0.019213    -6.455236     -5.925434       0.243991       0.008161
  559   0.019208    -6.471136     -5.940737       0.243980       0.008161
  560   0.019192    -6.486230     -5.955477       0.243971       0.008160
  561   0.019184    -6.502289     -5.971790       0.243962       0.008160
  562   0.019169    -6.519462     -5.989850       0.243953       0.008160
  563   0.019155    -6.537959     -6.009708       0.243945       0.008159
  564   0.019143    -6.558099     -6.031664       0.243937       0.008159
  565   0.019130    -6.580305     -6.056142       0.243929       0.008159
  566   0.019120    -6.604702     -6.083205       0.243922       0.008158
  567   0.019112    -6.631279     -6.112712       0.243914       0.008158
  568   0.019099    -6.659747     -6.144166       0.243907       0.008158
  569   0.019087    -6.689745     -6.177011       0.243899       0.008158
  570   0.019081    -6.720781     -6.210554       0.243891       0.008158
  571   0.019064    -6.752432     -6.244258       0.243883       0.008157
  572   0.019056    -6.784731     -6.278264       0.243874       0.008157
  573   0.019046    -6.817862     -6.312873       0.243865       0.008157
  574   0.019045    -6.852057     -6.348380       0.243856       0.008157
  575   0.019040    -6.887428     -6.384860       0.243846       0.008157
  576   0.019037    -6.923616     -6.421729       0.243835       0.008156
  577   0.019046    -6.959248     -6.457077       0.243824       0.008156
  578   0.019058    -6.991004     -6.486572       0.243812       0.008155
  579   0.019055    -7.012566     -6.502347       0.243801       0.008155
  580   0.019072    -7.020078     -6.500844       0.243789       0.008155
  581   0.019151    -7.021885     -6.494746       0.243778       0.008154

---------------------- Local Time Stepping Summary ----------------------
MG level: 0 -> Min. DT: 0.000493995. Max. DT: 3.62526. CFL: 10.
MG level: 1 -> Min. DT: 0.000793147. Max. DT: 5.70608. CFL: 8.35917.
MG level: 2 -> Min. DT: 0.00156237. Max. DT: 8.30247. CFL: 7.39444.
-------------------------------------------------------------------------

----------------------- Residual Evolution Summary ----------------------
log10[Maximum residual]: -5.96581.
Maximum residual point 297, located at (0.473179, -0.0702814).
-------------------------------------------------------------------------

 Iter    Time(s)     Res[Rho]     Res[RhoE]      CL(Total)      CD(Total)
  582   0.019216    -7.027463     -6.496610       0.243766       0.008154
  583   0.019223    -7.036166     -6.504475       0.243754       0.008153
  584   0.019219    -7.041681     -6.508763       0.243742       0.008153
  585   0.019211    -7.041583     -6.506194       0.243730       0.008152
  586   0.019241    -7.040831     -6.503961       0.243718       0.008152
  587   0.019258    -7.042677     -6.506535       0.243706       0.008151
  588   0.019251    -7.043677     -6.508773       0.243694       0.008151
  589   0.019240    -7.039636     -6.504529       0.243683       0.008151
  590   0.019235    -7.032217     -6.496280       0.243672       0.008150
  591   0.019230    -7.024991     -6.489089       0.243661       0.008150
  592   0.019223    -7.017829     -6.482491       0.243651       0.008150
  593   0.019219    -7.008800     -6.473449       0.243641       0.008149
  594   0.019208    -6.998427     -6.462670       0.243631       0.008149
  595   0.019201    -6.988666     -6.452897       0.243622       0.008149
  596   0.019191    -6.980032     -6.444643       0.243613       0.008148
  597   0.019181    -6.972004     -6.436937       0.243604       0.008148
  598   0.019175    -6.964901     -6.430096       0.243595       0.008148
  599   0.019169    -6.959296     -6.424952       0.243587       0.008148
  600   0.019162    -6.955334     -6.421671       0.243579       0.008147
  601   0.019154    -6.952744     -6.419770       0.243571       0.008147
  602   0.019148    -6.951552     -6.419266       0.243564       0.008147
  603   0.019150    -6.952015     -6.420523       0.243556       0.008147
  604   0.019148    -6.954122     -6.423495       0.243549       0.008146
  605   0.019134    -6.957674     -6.427883       0.243542       0.008146
  606   0.019128    -6.962595     -6.433600       0.243535       0.008146
  607   0.019121    -6.968886     -6.440679       0.243529       0.008146
  608   0.019113    -6.976449     -6.449003       0.243523       0.008146
  609   0.019116    -6.985128     -6.458383       0.243516       0.008145
  610   0.019113    -6.994820     -6.468715       0.243510       0.008145
  611   0.019097    -7.005445     -6.479929       0.243505       0.008145
  612   0.019092    -7.016876     -6.491884       0.243499       0.008145
  613   0.019088    -7.028971     -6.504425       0.243493       0.008145
  614   0.019080    -7.041627     -6.517452       0.243488       0.008144
  615   0.019075    -7.054748     -6.530876       0.243483       0.008144
  616   0.019070    -7.068223     -6.544585       0.243478       0.008144
  617   0.019063    -7.081951     -6.558475       0.243473       0.008144
  618   0.019058    -7.095852     -6.572479       0.243468       0.008144
  619   0.019050    -7.109857     -6.586533       0.243463       0.008144
  620   0.019051    -7.123899     -6.600577       0.243458       0.008143
  621   0.019043    -7.137922     -6.614561       0.243454       0.008143

---------------------- Local Time Stepping Summary ----------------------
MG level: 0 -> Min. DT: 0.000493989. Max. DT: 3.62526. CFL: 10.
MG level: 1 -> Min. DT: 0.000793154. Max. DT: 5.70608. CFL: 8.35917.
MG level: 2 -> Min. DT: 0.0015626. Max. DT: 8.30247. CFL: 7.39444.
-------------------------------------------------------------------------

----------------------- Residual Evolution Summary ----------------------
log10[Maximum residual]: -5.84415.
Maximum residual point 667, located at (0.570178, 0.0939019).
-------------------------------------------------------------------------

 Iter    Time(s)     Res[Rho]     Res[RhoE]      CL(Total)      CD(Total)
  622   0.019039    -7.151885     -6.628455       0.243450       0.008143
  623   0.019034    -7.165756     -6.642233       0.243445       0.008143
  624   0.019030    -7.179512     -6.655879       0.243441       0.008143
  625   0.019023    -7.193138     -6.669386       0.243437       0.008143
  626   0.019017    -7.206632     -6.682758       0.243433       0.008143
  627   0.019010    -7.219996     -6.696003       0.243430       0.008143
  628   0.019005    -7.233238     -6.709135       0.243426       0.008142
  629   0.019001    -7.246376     -6.722176       0.243422       0.008142
  630   0.019011    -7.259432     -6.735154       0.243419       0.008142
  631   0.019003    -7.272434     -6.748098       0.243416       0.008142
  632   0.018999    -7.285408     -6.761037       0.243412       0.008142
  633   0.019007    -7.298383     -6.774002       0.243409       0.008142
  634   0.019059    -7.311389     -6.787025       0.243406       0.008142
  635   0.019110    -7.324454     -6.800132       0.243403       0.008142
  636   0.019123    -7.337603     -6.813349       0.243400       0.008142
  637   0.019120    -7.350861     -6.826698       0.243398       0.008142
  638   0.019112    -7.364247     -6.840198       0.243395       0.008141
  639   0.019130    -7.377778     -6.853864       0.243392       0.008141
  640   0.019150    -7.391466     -6.867704       0.243390       0.008141
  641   0.019145    -7.405317     -6.881724       0.243387       0.008141
  642   0.019135    -7.419335     -6.895922       0.243385       0.008141
  643   0.019123    -7.433516     -6.910294       0.243382       0.008141
  644   0.019116    -7.447853     -6.924827       0.243380       0.008141
  645   0.019114    -7.462332     -6.939507       0.243378       0.008141
  646   0.019108    -7.476939     -6.954315       0.243375       0.008141
  647   0.019105    -7.491651     -6.969226       0.243373       0.008141
  648   0.019100    -7.506445     -6.984215       0.243371       0.008141
  649   0.019091    -7.521293     -6.999253       0.243369       0.008141
  650   0.019086    -7.536166     -7.014306       0.243367       0.008141
  651   0.019082    -7.551032     -7.029344       0.243365       0.008140
  652   0.019079    -7.565858     -7.044333       0.243363       0.008140
  653   0.019072    -7.580612     -7.059238       0.243361       0.008140
  654   0.019065    -7.595260     -7.074026       0.243359       0.008140
  655   0.019062    -7.609770     -7.088665       0.243358       0.008140
  656   0.019065    -7.624112     -7.103126       0.243356       0.008140
  657   0.019060    -7.638258     -7.117381       0.243354       0.008140
  658   0.019052    -7.652181     -7.131404       0.243352       0.008140
  659   0.019052    -7.665861     -7.145175       0.243351       0.008140
  660   0.019048    -7.679277     -7.158677       0.243349       0.008140
  661   0.019042    -7.692417     -7.171897       0.243347       0.008140

---------------------- Local Time Stepping Summary ----------------------
MG level: 0 -> Min. DT: 0.000493988. Max. DT: 3.62526. CFL: 10.
MG level: 1 -> Min. DT: 0.000793158. Max. DT: 5.70608. CFL: 8.35917.
MG level: 2 -> Min. DT: 0.00156268. Max. DT: 8.30247. CFL: 7.39444.
-------------------------------------------------------------------------

----------------------- Residual Evolution Summary ----------------------
log10[Maximum residual]: -6.38856.
Maximum residual point 667, located at (0.570178, 0.0939019).
-------------------------------------------------------------------------

 Iter    Time(s)     Res[Rho]     Res[RhoE]      CL(Total)      CD(Total)
  662   0.019039    -7.705302     -7.184869       0.243346       0.008140
  663   0.019036    -7.717844     -7.197475       0.243344       0.008140
  664   0.019033    -7.730019     -7.209691       0.243343       0.008140
  665   0.019028    -7.741895     -7.221618       0.243341       0.008140
  666   0.019022    -7.753494     -7.233279       0.243340       0.008140
  667   0.019018    -7.764807     -7.244649       0.243338       0.008140
  668   0.019012    -7.775846     -7.255745       0.243337       0.008140
  669   0.019008    -7.786656     -7.266625       0.243335       0.008140
  670   0.019014    -7.797268     -7.277323       0.243334       0.008139
  671   0.019056    -7.807692     -7.287841       0.243333       0.008139
  672   0.019056    -7.817943     -7.298191       0.243331       0.008139
  673   0.019053    -7.828045     -7.308399       0.243330       0.008139
  674   0.019042    -7.838023     -7.318492       0.243329       0.008139
  675   0.019037    -7.847895     -7.328486       0.243328       0.008139
  676   0.019038    -7.857680     -7.338397       0.243327       0.008139
  677   0.019033    -7.867401     -7.348250       0.243325       0.008139
  678   0.019034    -7.877078     -7.358065       0.243324       0.008139
  679   0.019029    -7.886731     -7.367860       0.243323       0.008139
  680   0.019024    -7.896374     -7.377649       0.243322       0.008139
  681   0.019025    -7.906023     -7.387447       0.243321       0.008139
  682   0.019021    -7.915691     -7.397267       0.243320       0.008139
  683   0.019031    -7.925391     -7.407119       0.243319       0.008139
  684   0.019027    -7.935130     -7.417010       0.243318       0.008139
  685   0.019023    -7.944917     -7.426948       0.243317       0.008139
  686   0.019066    -7.954757     -7.436938       0.243316       0.008139
  687   0.019106    -7.964655     -7.446983       0.243315       0.008139
  688   0.019118    -7.974614     -7.457086       0.243314       0.008139
  689   0.019123    -7.984636     -7.467247       0.243313       0.008139
  690   0.019118    -7.994722     -7.477468       0.243312       0.008139
  691   0.019125    -8.004871     -7.487749       0.243312       0.008139
  692   0.019127    -8.015083     -7.498086       0.243311       0.008139
  693   0.019132    -8.025356     -7.508480       0.243310       0.008139
  694   0.019127    -8.035689     -7.518930       0.243309       0.008139
  695   0.019119    -8.046081     -7.529433       0.243308       0.008139
  696   0.019116    -8.056529     -7.539987       0.243308       0.008139
  697   0.019109    -8.067030     -7.550589       0.243307       0.008139
  698   0.019104    -8.077582     -7.561238       0.243306       0.008139
  699   0.019106    -8.088184     -7.571931       0.243306       0.008139
  700   0.019100    -8.098835     -7.582669       0.243305       0.008139
  701   0.019098    -8.109533     -7.593450       0.243304       0.008139

---------------------- Local Time Stepping Summary ----------------------
MG level: 0 -> Min. DT: 0.000493986. Max. DT: 3.62526. CFL: 10.
MG level: 1 -> Min. DT: 0.000793157. Max. DT: 5.70608. CFL: 8.35917.
MG level: 2 -> Min. DT: 0.00156271. Max. DT: 8.30248. CFL: 7.39444.
-------------------------------------------------------------------------

----------------------- Residual Evolution Summary ----------------------
log10[Maximum residual]: -6.78091.
Maximum residual point 667, located at (0.570178, 0.0939019).
-------------------------------------------------------------------------

 Iter    Time(s)     Res[Rho]     Res[RhoE]      CL(Total)      CD(Total)
  702   0.019097    -8.120277     -7.604273       0.243304       0.008139
  703   0.019098    -8.131069     -7.615140       0.243303       0.008138
  704   0.019097    -8.141908     -7.626052       0.243302       0.008138
  705   0.019095    -8.152796     -7.637009       0.243302       0.008138
  706   0.019095    -8.163733     -7.648014       0.243301       0.008138
  707   0.019091    -8.174722     -7.659069       0.243301       0.008138
  708   0.019090    -8.185764     -7.670175       0.243300       0.008138
  709   0.019087    -8.196862     -7.681335       0.243300       0.008138
  710   0.019083    -8.208016     -7.692551       0.243299       0.008138
  711   0.019082    -8.219229     -7.703824       0.243299       0.008138
  712   0.019083    -8.230502     -7.715156       0.243298       0.008138

-------------------------- File Output Summary --------------------------
Writing comma-separated values (CSV) surface files.
Merging coordinates in the Master node.
Merging solution in the Master node.
Writing SU2 native restart file.
Writing the forces breakdown file.
-------------------------------------------------------------------------

  713   0.019278    -8.241836     -7.726549       0.243298       0.008138
  714   0.019274    -8.253232     -7.738003       0.243297       0.008138
  715   0.019274    -8.264691     -7.749518       0.243297       0.008138
  716   0.019270    -8.276212     -7.761095       0.243296       0.008138
  717   0.019266    -8.287795     -7.772731       0.243296       0.008138
  718   0.019260    -8.299438     -7.784427       0.243296       0.008138
  719   0.019257    -8.311140     -7.796180       0.243295       0.008138
  720   0.019257    -8.322899     -7.807989       0.243295       0.008138
  721   0.019251    -8.334712     -7.819850       0.243294       0.008138
  722   0.019247    -8.346577     -7.831760       0.243294       0.008138
  723   0.019242    -8.358490     -7.843717       0.243294       0.008138
  724   0.019237    -8.370448     -7.855716       0.243293       0.008138
  725   0.019233    -8.382447     -7.867753       0.243293       0.008138
  726   0.019227    -8.394483     -7.879825       0.243293       0.008138
  727   0.019225    -8.406553     -7.891927       0.243292       0.008138
  728   0.019219    -8.418652     -7.904057       0.243292       0.008138
  729   0.019216    -8.430777     -7.916208       0.243292       0.008138
  730   0.019213    -8.442923     -7.928379       0.243291       0.008138
  731   0.019207    -8.455088     -7.940565       0.243291       0.008138
  732   0.019210    -8.467267     -7.952762       0.243291       0.008138
  733   0.019217    -8.479457     -7.964969       0.243291       0.008138
  734   0.019216    -8.491657     -7.977181       0.243290       0.008138
  735   0.019214    -8.503862     -7.989397       0.243290       0.008138
  736   0.019250    -8.516071     -8.001615       0.243290       0.008138
  737   0.019276    -8.528283     -8.013833       0.243290       0.008138
  738   0.019285    -8.540494     -8.026049       0.243289       0.008138
  739   0.019289    -8.552705     -8.038263       0.243289       0.008138
  740   0.019288    -8.564914     -8.050472       0.243289       0.008138
  741   0.019298    -8.577120     -8.062678       0.243289       0.008138

---------------------- Local Time Stepping Summary ----------------------
MG level: 0 -> Min. DT: 0.000493985. Max. DT: 3.62526. CFL: 10.
MG level: 1 -> Min. DT: 0.000793156. Max. DT: 5.70608. CFL: 8.35917.
MG level: 2 -> Min. DT: 0.00156272. Max. DT: 8.30248. CFL: 7.39444.
-------------------------------------------------------------------------

----------------------- Residual Evolution Summary ----------------------
log10[Maximum residual]: -7.24965.
Maximum residual point 667, located at (0.570178, 0.0939019).
-------------------------------------------------------------------------

 Iter    Time(s)     Res[Rho]     Res[RhoE]      CL(Total)      CD(Total)
  742   0.019305    -8.589323     -8.074878       0.243288       0.008138
  743   0.019298    -8.601522     -8.087073       0.243288       0.008138
  744   0.019294    -8.613717     -8.099263       0.243288       0.008138
  745   0.019292    -8.625908     -8.111448       0.243288       0.008138
  746   0.019287    -8.638095     -8.123628       0.243288       0.008138
  747   0.019284    -8.650277     -8.135802       0.243288       0.008138
  748   0.019281    -8.662455     -8.147971       0.243287       0.008138
  749   0.019276    -8.674628     -8.160134       0.243287       0.008138
  750   0.019276    -8.686797     -8.172291       0.243287       0.008138
  751   0.019270    -8.698961     -8.184443       0.243287       0.008138
  752   0.019266    -8.711120     -8.196589       0.243287       0.008138
  753   0.019263    -8.723274     -8.208728       0.243287       0.008138
  754   0.019258    -8.735422     -8.220860       0.243286       0.008138
  755   0.019253    -8.747563     -8.232985       0.243286       0.008138
  756   0.019249    -8.759696     -8.245100       0.243286       0.008138
  757   0.019244    -8.771822     -8.257206       0.243286       0.008138
  758   0.019242    -8.783939     -8.269302       0.243286       0.008138
  759   0.019239    -8.796046     -8.281386       0.243286       0.008138
  760   0.019240    -8.808141     -8.293457       0.243286       0.008138
  761   0.019249    -8.820224     -8.305515       0.243285       0.008138
  762   0.019246    -8.832295     -8.317558       0.243285       0.008138
  763   0.019249    -8.844352     -8.329586       0.243285       0.008138
  764   0.019252    -8.856392     -8.341595       0.243285       0.008138
  765   0.019248    -8.868416     -8.353586       0.243285       0.008138
  766   0.019246    -8.880422     -8.365558       0.243285       0.008138
  767   0.019243    -8.892410     -8.377510       0.243285       0.008138
  768   0.019240    -8.904378     -8.389440       0.243285       0.008138
  769   0.019236    -8.916326     -8.401348       0.243285       0.008138
  770   0.019237    -8.928252     -8.413233       0.243284       0.008138
  771   0.019235    -8.940157     -8.425095       0.243284       0.008138
  772   0.019231    -8.952039     -8.436933       0.243284       0.008138
  773   0.019228    -8.963898     -8.448746       0.243284       0.008138
  774   0.019224    -8.975735     -8.460534       0.243284       0.008138
  775   0.019221    -8.987549     -8.472300       0.243284       0.008138
  776   0.019218    -8.999340     -8.484041       0.243284       0.008138
  777   0.019218    -9.011108     -8.495757       0.243284       0.008138
  778   0.019216    -9.022854     -8.507450       0.243284       0.008138
  779   0.019211    -9.034576     -8.519119       0.243284       0.008138
  780   0.019207    -9.046277     -8.530763       0.243284       0.008138
  781   0.019204    -9.057956     -8.542387       0.243284       0.008138

---------------------- Local Time Stepping Summary ----------------------
MG level: 0 -> Min. DT: 0.000493985. Max. DT: 3.62526. CFL: 10.
MG level: 1 -> Min. DT: 0.000793156. Max. DT: 5.70608. CFL: 8.35917.
MG level: 2 -> Min. DT: 0.00156272. Max. DT: 8.30248. CFL: 7.39444.
-------------------------------------------------------------------------

----------------------- Residual Evolution Summary ----------------------
log10[Maximum residual]: -7.73548.
Maximum residual point 667, located at (0.570178, 0.0939019).
-------------------------------------------------------------------------

 Iter    Time(s)     Res[Rho]     Res[RhoE]      CL(Total)      CD(Total)
  782   0.019201    -9.069614     -8.553988       0.243284       0.008138
  783   0.019198    -9.081250     -8.565565       0.243283       0.008138
  784   0.019193    -9.092866     -8.577122       0.243283       0.008138
  785   0.019187    -9.104464     -8.588661       0.243283       0.008138
  786   0.019192    -9.116043     -8.600180       0.243283       0.008138
  787   0.019189    -9.127604     -8.611680       0.243283       0.008138
  788   0.019200    -9.139149     -8.623164       0.243283       0.008138
  789   0.019226    -9.150679     -8.634631       0.243283       0.008138
  790   0.019245    -9.162192     -8.646082       0.243283       0.008138
  791   0.019244    -9.173692     -8.657519       0.243283       0.008138
  792   0.019245    -9.185178     -8.668942       0.243283       0.008138
  793   0.019240    -9.196651     -8.680350       0.243283       0.008138
  794   0.019257    -9.208112     -8.691748       0.243283       0.008138
  795   0.019260    -9.219565     -8.703138       0.243283       0.008138
  796   0.019259    -9.231007     -8.714515       0.243283       0.008138
  797   0.019253    -9.242439     -8.725883       0.243283       0.008138
  798   0.019250    -9.253866     -8.737245       0.243283       0.008138
  799   0.019246    -9.265288     -8.748604       0.243283       0.008138
  800   0.019242    -9.276700     -8.759952       0.243283       0.008138
  801   0.019237    -9.288105     -8.771291       0.243283       0.008138
  802   0.019234    -9.299509     -8.782631       0.243282       0.008138
  803   0.019231    -9.310911     -8.793971       0.243282       0.008138
  804   0.019226    -9.322310     -8.805306       0.243282       0.008138
  805   0.019224    -9.333705     -8.816637       0.243282       0.008138
  806   0.019219    -9.345101     -8.827969       0.243282       0.008138
  807   0.019214    -9.356497     -8.839303       0.243282       0.008138
  808   0.019212    -9.367894     -8.850638       0.243282       0.008138
  809   0.019217    -9.379296     -8.861979       0.243282       0.008138
  810   0.019217    -9.390700     -8.873324       0.243282       0.008138
  811   0.019215    -9.402105     -8.884667       0.243282       0.008138
  812   0.019213    -9.413512     -8.896012       0.243282       0.008138
  813   0.019213    -9.424931     -8.907373       0.243282       0.008138
  814   0.019210    -9.436356     -8.918742       0.243282       0.008138
  815   0.019207    -9.447782     -8.930108       0.243282       0.008138
  816   0.019206    -9.459212     -8.941479       0.243282       0.008138
  817   0.019203    -9.470653     -8.952864       0.243282       0.008138
  818   0.019201    -9.482104     -8.964260       0.243282       0.008138
  819   0.019197    -9.493563     -8.975664       0.243282       0.008138
  820   0.019195    -9.505029     -8.987075       0.243282       0.008138
  821   0.019193    -9.516504     -8.998497       0.243282       0.008138

---------------------- Local Time Stepping Summary ----------------------
MG level: 0 -> Min. DT: 0.000493985. Max. DT: 3.62526. CFL: 10.
MG level: 1 -> Min. DT: 0.000793156. Max. DT: 5.70608. CFL: 8.35917.
MG level: 2 -> Min. DT: 0.00156272. Max. DT: 8.30248. CFL: 7.39444.
-------------------------------------------------------------------------

----------------------- Residual Evolution Summary ----------------------
log10[Maximum residual]: -8.19898.
Maximum residual point 667, located at (0.570178, 0.0939019).
-------------------------------------------------------------------------

 Iter    Time(s)     Res[Rho]     Res[RhoE]      CL(Total)      CD(Total)
  822   0.019189    -9.527989     -9.009930       0.243282       0.008138
  823   0.019186    -9.539485     -9.021374       0.243282       0.008138
  824   0.019185    -9.550989     -9.032827       0.243282       0.008138
  825   0.019182    -9.562506     -9.044295       0.243282       0.008138
  826   0.019182    -9.574029     -9.055768       0.243282       0.008138
  827   0.019183    -9.585558     -9.067246       0.243282       0.008138
  828   0.019179    -9.597101     -9.078743       0.243282       0.008138
  829   0.019173    -9.608663     -9.090261       0.243282       0.008138
  830   0.019168    -9.620232     -9.101787       0.243282       0.008138
  831   0.019164    -9.631804     -9.113311       0.243282       0.008138
  832   0.019161    -9.643386     -9.124848       0.243282       0.008138
  833   0.019156    -9.654977     -9.136397       0.243282       0.008138
  834   0.019153    -9.666579     -9.147958       0.243282       0.008138
  835   0.019151    -9.678193     -9.159532       0.243282       0.008138
  836   0.019151    -9.689808     -9.171106       0.243282       0.008138
  837   0.019149    -9.701436     -9.182695       0.243282       0.008138
  838   0.019146    -9.713073     -9.194295       0.243282       0.008138
  839   0.019153    -9.724706     -9.205888       0.243282       0.008138
  840   0.019150    -9.736352     -9.217498       0.243282       0.008138
  841   0.019171    -9.748011     -9.229125       0.243282       0.008138
  842   0.019190    -9.759675     -9.240755       0.243282       0.008138
  843   0.019207    -9.771343     -9.252392       0.243282       0.008138
  844   0.019208    -9.783015     -9.264031       0.243281       0.008138
  845   0.019204    -9.794691     -9.275676       0.243281       0.008138
  846   0.019202    -9.806374     -9.287329       0.243281       0.008138
  847   0.019214    -9.818060     -9.298988       0.243281       0.008138
  848   0.019215    -9.829751     -9.310652       0.243281       0.008138
  849   0.019213    -9.841444     -9.322318       0.243281       0.008138
  850   0.019209    -9.853144     -9.333995       0.243281       0.008138
  851   0.019206    -9.864851     -9.345681       0.243281       0.008138
  852   0.019201    -9.876561     -9.357369       0.243281       0.008138
  853   0.019199    -9.888270     -9.369057       0.243281       0.008138
  854   0.019196    -9.899975     -9.380740       0.243281       0.008138
  855   0.019191    -9.911682     -9.392428       0.243281       0.008138
  856   0.019188    -9.923401     -9.404133       0.243281       0.008138
  857   0.019190    -9.935127     -9.415848       0.243281       0.008138
  858   0.019193    -9.946850     -9.427557       0.243281       0.008138
  859   0.019192    -9.958555     -9.439242       0.243281       0.008138
  860   0.019187    -9.970260     -9.450931       0.243281       0.008138
  861   0.019184    -9.981974     -9.462636       0.243281       0.008138

---------------------- Local Time Stepping Summary ----------------------
MG level: 0 -> Min. DT: 0.000493985. Max. DT: 3.62526. CFL: 10.
MG level: 1 -> Min. DT: 0.000793156. Max. DT: 5.70608. CFL: 8.35917.
MG level: 2 -> Min. DT: 0.00156272. Max. DT: 8.30248. CFL: 7.39444.
-------------------------------------------------------------------------

----------------------- Residual Evolution Summary ----------------------
log10[Maximum residual]: -8.66609.
Maximum residual point 667, located at (0.570178, 0.0939019).
-------------------------------------------------------------------------

 Iter    Time(s)     Res[Rho]     Res[RhoE]      CL(Total)      CD(Total)
  862   0.019181    -9.993682     -9.474332       0.243281       0.008138
  863   0.019180   -10.005388     -9.486028       0.243281       0.008138
  864   0.019177   -10.017108     -9.497745       0.243281       0.008138
  865   0.019172   -10.028830     -9.509464       0.243281       0.008138
  866   0.019171   -10.040560     -9.521196       0.243281       0.008138
  867   0.019169   -10.052289     -9.532925       0.243281       0.008138
  868   0.019167   -10.063995     -9.544624       0.243281       0.008138
  869   0.019166   -10.075693     -9.556316       0.243281       0.008138
  870   0.019163   -10.087412     -9.568041       0.243281       0.008138
  871   0.019159   -10.099122     -9.579753       0.243281       0.008138
  872   0.019156   -10.110827     -9.591459       0.243281       0.008138
  873   0.019154   -10.122535     -9.603173       0.243281       0.008138
  874   0.019150   -10.134236     -9.614878       0.243281       0.008138
  875   0.019147   -10.145939     -9.626588       0.243281       0.008138
  876   0.019143   -10.157666     -9.638334       0.243281       0.008138
  877   0.019140   -10.169353     -9.650022       0.243281       0.008138
  878   0.019136   -10.181022     -9.661690       0.243281       0.008138
  879   0.019133   -10.192729     -9.673418       0.243281       0.008138
  880   0.019129   -10.204447     -9.685159       0.243281       0.008138
  881   0.019127   -10.216128     -9.696846       0.243281       0.008138
  882   0.019124   -10.227793     -9.708514       0.243281       0.008138
  883   0.019121   -10.239483     -9.720225       0.243281       0.008138

-------------------------- File Output Summary --------------------------
Writing comma-separated values (CSV) surface files.
Merging coordinates in the Master node.
Merging solution in the Master node.
Writing SU2 native restart file.
Writing the forces breakdown file.
-------------------------------------------------------------------------

History file, closed.

------------------------- Solver Postprocessing -------------------------
Deleted CNumerics container.
Deleted CIntegration container.
Deleted CSolver container.
Deleted CIteration container.
Deleted CInterpolator container.
Deleted CTransfer container.
Deleted CGeometry container.
Deleted CFreeFormDefBox class.
Deleted CSurfaceMovement class.
Deleted CVolumetricMovement class.
Deleted CConfig container.
Deleted COutput class.
-------------------------------------------------------------------------

Completed in 8.125866 seconds on 8 cores.

------------------------- Exit Success (SU2_CFD) ------------------------


-------------------------------------------------------------------------
|    ___ _   _ ___                                                      |
|   / __| | | |_  )   Release 5.0.0  "Raven"                            |
|   \__ \ |_| |/ /                                                      |
|   |___/\___//___|   Suite (Solution Exporting Code)                   |
|                                                                       |
-------------------------------------------------------------------------
| SU2 Original Developers: Dr. Francisco D. Palacios.                   |
|                          Dr. Thomas D. Economon.                      |
-------------------------------------------------------------------------
| SU2 Developers:                                                       |
| - Prof. Juan J. Alonso's group at Stanford University.                |
| - Prof. Piero Colonna's group at Delft University of Technology.      |
| - Prof. Nicolas R. Gauger's group at Kaiserslautern U. of Technology. |
| - Prof. Alberto Guardone's group at Polytechnic University of Milan.  |
| - Prof. Rafael Palacios' group at Imperial College London.            |
| - Prof. Edwin van der Weide's group at the University of Twente.      |
| - Prof. Vincent Terrapon's group at the University of Liege.          |
-------------------------------------------------------------------------
| Copyright (C) 2012-2017 SU2, the open-source CFD code.                |
|                                                                       |
| SU2 is free software; you can redistribute it and/or                  |
| modify it under the terms of the GNU Lesser General Public            |
| License as published by the Free Software Foundation; either          |
| version 2.1 of the License, or (at your option) any later version.    |
|                                                                       |
| SU2 is distributed in the hope that it will be useful,                |
| but WITHOUT ANY WARRANTY; without even the implied warranty of        |
| MERCHANTABILITY or FITNESS FOR A PARTICULAR PURPOSE. See the GNU      |
| Lesser General Public License for more details.                       |
|                                                                       |
| You should have received a copy of the GNU Lesser General Public      |
| License along with SU2. If not, see <http://www.gnu.org/licenses/>.   |
-------------------------------------------------------------------------

------------------------ Physical Case Definition -----------------------
Input mesh file name: mesh_NACA0012_inv_deform.su2

-------------------------- Output Information ---------------------------
The output file format is Tecplot ASCII (.dat).
Flow variables file name: flow.

------------------- Config File Boundary Information --------------------
Euler wall boundary marker(s): airfoil.
Far-field boundary marker(s): farfield.

---------------------- Read Grid File Information -----------------------
Two dimensional problem.
5233 points before parallel partitioning.
Performing linear partitioning of the grid nodes.
10216 interior elements before parallel partitioning.
Calling the partitioning functions.
Building the graph adjacency structure.
Distributing elements across all ranks.
2 surface markers.
200 boundary elements in index 0 (Marker = airfoil).
50 boundary elements in index 1 (Marker = farfield).
Calling ParMETIS...
Finished partitioning using ParMETIS (547 edge cuts).
Communicating partition data and creating halo layers.
10763 interior elements including halo cells. 
10763 triangles.
5796 vertices including ghost points. 
Establishing MPI communication patterns.
Identify vertices.

------------------------- Solution Postprocessing -----------------------
Reading and storing the solution from restart_flow.dat.
Merging connectivities in the Master node.
Merging solution in the Master node.
Writing Tecplot ASCII file (volume grid).
Writing Tecplot ASCII file (surface grid).

Completed in 0.118425 seconds on 8 cores.

------------------------- Exit Success (SU2_SOL) ------------------------

