
-------------------------------------------------------------------------
|    ___ _   _ ___                                                      |
|   / __| | | |_  )   Release 5.0.0  "Raven"                            |
|   \__ \ |_| |/ /                                                      |
|   |___/\___//___|   Suite (Computational Fluid Dynamics Code)         |
|                                                                       |
-------------------------------------------------------------------------
| SU2 Original Developers: Dr. Francisco D. Palacios.                   |
|                          Dr. Thomas D. Economon.                      |
-------------------------------------------------------------------------
| SU2 Developers:                                                       |
| - Prof. Juan J. Alonso's group at Stanford University.                |
| - Prof. Piero Colonna's group at Delft University of Technology.      |
| - Prof. Nicolas R. Gauger's group at Kaiserslautern U. of Technology. |
| - Prof. Alberto Guardone's group at Polytechnic University of Milan.  |
| - Prof. Rafael Palacios' group at Imperial College London.            |
| - Prof. Edwin van der Weide's group at the University of Twente.      |
| - Prof. Vincent Terrapon's group at the University of Liege.          |
-------------------------------------------------------------------------
| Copyright (C) 2012-2017 SU2, the open-source CFD code.                |
|                                                                       |
| SU2 is free software; you can redistribute it and/or                  |
| modify it under the terms of the GNU Lesser General Public            |
| License as published by the Free Software Foundation; either          |
| version 2.1 of the License, or (at your option) any later version.    |
|                                                                       |
| SU2 is distributed in the hope that it will be useful,                |
| but WITHOUT ANY WARRANTY; without even the implied warranty of        |
| MERCHANTABILITY or FITNESS FOR A PARTICULAR PURPOSE. See the GNU      |
| Lesser General Public License for more details.                       |
|                                                                       |
| You should have received a copy of the GNU Lesser General Public      |
| License along with SU2. If not, see <http://www.gnu.org/licenses/>.   |
-------------------------------------------------------------------------

------------------------ Physical Case Definition -----------------------
Compressible Euler equations.
Mach number: 0.8.
Angle of attack (AoA): 1.25 deg, and angle of sideslip (AoS): 0 deg.
Read flow solution from: solution_flow.dat.
Non-Dimensional simulation (P=1.0, Rho=1.0, T=1.0 at the farfield).
The reference length/area (force coefficient) is 1.
The reference length (moment computation) is 1.
Reference origin (moment computation) is (0.25, 0, 0).
Surface(s) where the force coefficients are evaluated: airfoil.
Surface(s) plotted in the output file: airfoil.
Surface(s) affected by the design variables: airfoil.
Input mesh file name: mesh_NACA0012_inv_deform.su2

---------------------- Space Numerical Integration ----------------------
Jameson-Schmidt-Turkel scheme for the flow inviscid terms.
JST viscous coefficients (1st, 2nd & 4th): 0.15, 0.5, 0.02.
The method includes a grid stretching correction (p = 0.3).
Second order integration.
Gradient computation using Green-Gauss theorem.

---------------------- Time Numerical Integration -----------------------
Local time stepping (steady state simulation).
Euler implicit method for the flow equations.
V Multigrid Cycle, with 2 multigrid levels.
Damping factor for the residual restriction: 1.
Damping factor for the correction prolongation: 1.
No CFL adaptation.
Multigrid Level:                       0     1     2
Courant-Friedrichs-Lewy number:       10
MG PreSmooth coefficients:             1     2     3
MG PostSmooth coefficients:            0     0     0
MG CorrecSmooth coefficients:          0     0     0

------------------------- Convergence Criteria --------------------------
Maximum number of iterations: 1000.
Reduce the density residual 6 orders of magnitude.
The minimum bound for the density residual is 10^(-13).
Start convergence criteria at iteration 10.

-------------------------- Output Information ---------------------------
Writing a flow solution every 250 iterations.
Writing the convergence history every 1 iterations.
The output file format is Tecplot ASCII (.dat).
Convergence history file name: history_direct.
Forces breakdown file name: forces_breakdown.dat.
Surface flow coefficients file name: surface_flow.
Flow variables file name: flow.
Restart flow file name: restart_flow.dat.

------------------- Config File Boundary Information --------------------
Euler wall boundary marker(s): airfoil.
Far-field boundary marker(s): farfield.

---------------------- Read Grid File Information -----------------------
Two dimensional problem.
5233 points before parallel partitioning.
Performing linear partitioning of the grid nodes.
10216 interior elements before parallel partitioning.
Calling the partitioning functions.
Building the graph adjacency structure.
Distributing elements across all ranks.
2 surface markers.
200 boundary elements in index 0 (Marker = airfoil).
50 boundary elements in index 1 (Marker = farfield).
Calling ParMETIS...
Finished partitioning using ParMETIS (547 edge cuts).
Communicating partition data and creating halo layers.
10763 interior elements including halo cells. 
10763 triangles.
5796 vertices including ghost points. 
Establishing MPI communication patterns.

------------------------- Geometry Preprocessing ------------------------
Setting point connectivity.
Renumbering points (Reverse Cuthill McKee Ordering).
Recomputing point connectivity.
Setting element connectivity.
Checking the numerical grid orientation.
Identifying edges and vertices.
Computing centers of gravity.
Setting the control volume structure.
Area of the computational grid: 1.3e+03.
Searching for the closest normal neighbors to the surfaces.
Compute the surface curvature.
Max K: 7.84e+03. Mean K: 35.7. Standard deviation K: 494.
Checking for periodicity.
Setting the multigrid structure.
MG level: 0 -> CVs: 5796. Agglomeration rate 1/1.00. CFL 10.
MG level: 1 -> CVs: 1800. Agglomeration rate 1/3.22. CFL 8.36.
MG level: 2 -> CVs: 626. Agglomeration rate 1/2.88. CFL 7.39.
Computing wall distances.
Wetted area = 2.03 m.
Area projection in the x-plane = 0.107 m, y-plane = 1 m.

------------------------- Driver information --------------------------
A Fluid driver has been instantiated.

------------------------ Iteration Preprocessing ------------------------
Zone 1: Euler/Navier-Stokes/RANS flow iteration.

------------------------- Solver Preprocessing --------------------------
Inviscid flow: Computing density based on free-stream
temperature and pressure using the ideal gas law.
Force coefficients computed using free-stream values.
-- Input conditions:
Fluid Model: STANDARD_AIR 
Specific gas constant: 287.058 N.m/kg.K.
Specific gas constant (non-dim): 1
Specific Heat Ratio: 1.4
Free-stream static pressure: 101325 Pa.
Free-stream total pressure: 154454 Pa.
Free-stream temperature: 288.15 K.
Free-stream density: 1.22498 kg/m^3.
Free-stream velocity: (272.173, 5.93883) m/s. Magnitude: 272.238 m/s (529.186 KTS).
Free-stream total energy per unit mass: 243846 m^2/s^2.
-- Reference values:
Reference specific gas constant: 287.058 N.m/kg.K.
Reference pressure: 101325 Pa.
Reference temperature: 288.15 K.
Reference density: 1.22498 kg/m^3.
Reference velocity: 287.603 m/s.
Reference energy per unit mass: 82715.8 m^2/s^2.
-- Resulting non-dimensional state:
Mach number (non-dim): 0.8
Specific gas constant (non-dim): 1
Free-stream temperature (non-dim): 1
Free-stream pressure (non-dim): 1
Free-stream density (non-dim): 1
Free-stream velocity (non-dim): (0.946348, 0.0206494). Magnitude: 0.946573
Free-stream total energy per unit mass (non-dim): 2.948

Initialize Jacobian structure (Euler). MG level: 0.
Initialize Jacobian structure (Euler). MG level: 1.
Initialize Jacobian structure (Euler). MG level: 2.

----------------- Integration and Numerics Preprocessing ----------------
Integration Preprocessing.
Numerics Preprocessing.

------------------------------ Begin Solver -----------------------------

---------------------- Local Time Stepping Summary ----------------------
MG level: 0 -> Min. DT: 0.000497825. Max. DT: 3.6287. CFL: 10.
MG level: 1 -> Min. DT: 0.000799996. Max. DT: 5.71115. CFL: 8.35917.
MG level: 2 -> Min. DT: 0.00155939. Max. DT: 8.31073. CFL: 7.39444.
-------------------------------------------------------------------------

----------------------- Residual Evolution Summary ----------------------
log10[Maximum residual]: -5.08447.
Maximum residual point 105, located at (0.00752, 0.0115478).
-------------------------------------------------------------------------

 Iter    Time(s)     Res[Rho]     Res[RhoE]      CL(Total)      CD(Total)
 2881   0.016529    -6.223567     -5.627188       0.067879       0.000702
 2882   0.016003    -6.258053     -5.655424       0.067854       0.000628
 2883   0.016021    -6.268889     -5.670908       0.067822       0.000598
 2884   0.017766    -6.258768     -5.659449       0.067790       0.000570
 2885   0.019445    -6.226662     -5.625964       0.067751       0.000548
 2886   0.020802    -6.190854     -5.590728       0.067702       0.000534
 2887   0.020635    -6.164313     -5.565565       0.067653       0.000521
 2888   0.020189    -6.137073     -5.537852       0.067606       0.000510
 2889   0.019728    -6.116613     -5.516898       0.067563       0.000501
 2890   0.019382    -6.102389     -5.502254       0.067526       0.000494
 2891   0.019596    -6.093955     -5.493537       0.067492       0.000488
 2892   0.019541    -6.090305     -5.489717       0.067461       0.000484
 2893   0.019407    -6.089730     -5.489015       0.067433       0.000481
 2894   0.019267    -6.090642     -5.489804       0.067407       0.000478
 2895   0.019311    -6.092137     -5.491135       0.067383       0.000476
 2896   0.019369    -6.093813     -5.492519       0.067360       0.000475
 2897   0.019342    -6.095421     -5.493573       0.067339       0.000474
 2898   0.019165    -6.096748     -5.493955       0.067321       0.000473
 2899   0.019006    -6.097708     -5.493532       0.067303       0.000473
 2900   0.018889    -6.098477     -5.492555       0.067288       0.000472
 2901   0.018737    -6.099545     -5.491681       0.067274       0.000472
 2902   0.018614    -6.101643     -5.491852       0.067262       0.000472
 2903   0.018544    -6.105707     -5.494200       0.067252       0.000471
 2904   0.018471    -6.112885     -5.500036       0.067243       0.000471
 2905   0.018383    -6.124622     -5.510956       0.067236       0.000470
 2906   0.018290    -6.142869     -5.529103       0.067230       0.000469
 2907   0.018258    -6.170631     -5.557819       0.067226       0.000468
 2908   0.018180    -6.213045     -5.602963       0.067222       0.000467
 2909   0.018117    -6.278223     -5.674305       0.067220       0.000465
 2910   0.018047    -6.362455     -5.769740       0.067216       0.000462
 2911   0.018009    -6.419732     -5.836377       0.067205       0.000459
 2912   0.017973    -6.455625     -5.878528       0.067190       0.000456
 2913   0.017925    -6.469270     -5.894886       0.067172       0.000454
 2914   0.017864    -6.469549     -5.895848       0.067154       0.000452
 2915   0.017843    -6.467800     -5.894583       0.067134       0.000450
 2916   0.017798    -6.467762     -5.895375       0.067114       0.000448
 2917   0.017765    -6.466407     -5.894781       0.067095       0.000447
 2918   0.017762    -6.463905     -5.893102       0.067076       0.000445
 2919   0.017728    -6.463390     -5.893927       0.067057       0.000444
 2920   0.017824    -6.465082     -5.897362       0.067039       0.000443

---------------------- Local Time Stepping Summary ----------------------
MG level: 0 -> Min. DT: 0.000497841. Max. DT: 3.6287. CFL: 10.
MG level: 1 -> Min. DT: 0.000799998. Max. DT: 5.71116. CFL: 8.35917.
MG level: 2 -> Min. DT: 0.00155945. Max. DT: 8.31074. CFL: 7.39444.
-------------------------------------------------------------------------

----------------------- Residual Evolution Summary ----------------------
log10[Maximum residual]: -5.42938.
Maximum residual point 1424, located at (0.520775, 0.187967).
-------------------------------------------------------------------------

 Iter    Time(s)     Res[Rho]     Res[RhoE]      CL(Total)      CD(Total)
 2921   0.017996    -6.466188     -5.899992       0.067023       0.000443
 2922   0.018180    -6.466136     -5.901085       0.067008       0.000443
 2923   0.018334    -6.467315     -5.903435       0.066994       0.000442
 2924   0.018482    -6.470493     -5.907933       0.066981       0.000443
 2925   0.018568    -6.474405     -5.913084       0.066969       0.000443
 2926   0.018633    -6.479657     -5.919627       0.066959       0.000443
 2927   0.018729    -6.487975     -5.929660       0.066949       0.000444
 2928   0.018813    -6.499066     -5.942870       0.066940       0.000444
 2929   0.018918    -6.512390     -5.958647       0.066932       0.000445
 2930   0.019031    -6.528769     -5.978064       0.066925       0.000446
 2931   0.019137    -6.548125     -6.001105       0.066918       0.000446
 2932   0.019189    -6.569724     -6.026876       0.066911       0.000447
 2933   0.019336    -6.593453     -6.055224       0.066905       0.000447
 2934   0.019363    -6.619448     -6.086257       0.066899       0.000447
 2935   0.019518    -6.647763     -6.119902       0.066893       0.000448
 2936   0.019667    -6.677526     -6.154832       0.066888       0.000448
 2937   0.019773    -6.704983     -6.185908       0.066884       0.000449
 2938   0.019778    -6.718167     -6.197276       0.066881       0.000449
 2939   0.019882    -6.702730     -6.172312       0.066878       0.000450
 2940   0.019966    -6.677547     -6.139216       0.066877       0.000450
 2941   0.020042    -6.655493     -6.113573       0.066877       0.000451
 2942   0.020123    -6.645256     -6.103540       0.066877       0.000451
 2943   0.020207    -6.644030     -6.103110       0.066878       0.000451
 2944   0.020284    -6.642060     -6.099915       0.066878       0.000451
 2945   0.020350    -6.643935     -6.101329       0.066879       0.000451
 2946   0.020415    -6.653641     -6.112826       0.066879       0.000452
 2947   0.020435    -6.665033     -6.126115       0.066879       0.000452
 2948   0.020495    -6.677850     -6.140960       0.066879       0.000452
 2949   0.020522    -6.689655     -6.154216       0.066879       0.000452
 2950   0.020559    -6.697514     -6.161985       0.066879       0.000452
 2951   0.020562    -6.703978     -6.168051       0.066879       0.000452
 2952   0.020577    -6.711211     -6.175392       0.066879       0.000452
 2953   0.020608    -6.719790     -6.184520       0.066880       0.000453
 2954   0.020618    -6.729156     -6.194433       0.066880       0.000453
 2955   0.020652    -6.738758     -6.204377       0.066880       0.000453
 2956   0.020654    -6.748709     -6.214642       0.066880       0.000453
 2957   0.020683    -6.759378     -6.225822       0.066879       0.000452
 2958   0.020707    -6.771066     -6.238306       0.066879       0.000452
 2959   0.020720    -6.783930     -6.252239       0.066879       0.000452
 2960   0.020737    -6.798150     -6.267819       0.066879       0.000452

---------------------- Local Time Stepping Summary ----------------------
MG level: 0 -> Min. DT: 0.000497814. Max. DT: 3.6287. CFL: 10.
MG level: 1 -> Min. DT: 0.000799995. Max. DT: 5.71116. CFL: 8.35917.
MG level: 2 -> Min. DT: 0.00155938. Max. DT: 8.31074. CFL: 7.39444.
-------------------------------------------------------------------------

----------------------- Residual Evolution Summary ----------------------
log10[Maximum residual]: -5.67532.
Maximum residual point 407, located at (0.551932, 0.0591171).
-------------------------------------------------------------------------

 Iter    Time(s)     Res[Rho]     Res[RhoE]      CL(Total)      CD(Total)
 2961   0.020691    -6.813831     -6.285137       0.066879       0.000452
 2962   0.020749    -6.830974     -6.304139       0.066879       0.000452
 2963   0.020775    -6.849381     -6.324525       0.066879       0.000452
 2964   0.020812    -6.868774     -6.345930       0.066879       0.000452
 2965   0.020835    -6.888862     -6.368016       0.066880       0.000452
 2966   0.020866    -6.909196     -6.390254       0.066880       0.000452
 2967   0.020896    -6.928949     -6.411593       0.066881       0.000452
 2968   0.020881    -6.946793     -6.430266       0.066881       0.000452
 2969   0.020828    -6.961155     -6.444091       0.066882       0.000452
 2970   0.020772    -6.970414     -6.451417       0.066883       0.000452
 2971   0.020730    -6.974244     -6.452390       0.066884       0.000452
 2972   0.020680    -6.975495     -6.451040       0.066884       0.000452
 2973   0.020640    -6.977565     -6.451651       0.066885       0.000452
 2974   0.020589    -6.982294     -6.456167       0.066886       0.000452
 2975   0.020543    -6.989664     -6.464082       0.066886       0.000452
 2976   0.020508    -6.999622     -6.475128       0.066886       0.000452
 2977   0.020490    -7.012636     -6.489921       0.066887       0.000452
 2978   0.020539    -7.028904     -6.508663       0.066887       0.000452
 2979   0.020550    -7.048127     -6.530806       0.066888       0.000452
 2980   0.020603    -7.069704     -6.555436       0.066888       0.000452
 2981   0.020687    -7.092721     -6.581286       0.066888       0.000452
 2982   0.020761    -7.115908     -6.606656       0.066889       0.000452
 2983   0.020787    -7.137861     -6.629781       0.066889       0.000452
 2984   0.020815    -7.157768     -6.649850       0.066889       0.000452
 2985   0.020832    -7.175133     -6.666437       0.066890       0.000452
 2986   0.020854    -7.190244     -6.680156       0.066890       0.000452
 2987   0.020872    -7.205709     -6.694874       0.066890       0.000452
 2988   0.020880    -7.224032     -6.713923       0.066890       0.000452
 2989   0.020904    -7.244193     -6.735166       0.066890       0.000452
 2990   0.020954    -7.265393     -6.757197       0.066890       0.000452
 2991   0.020965    -7.287767     -6.780452       0.066890       0.000452
 2992   0.020964    -7.310355     -6.803531       0.066889       0.000452
 2993   0.020993    -7.332716     -6.825957       0.066889       0.000452
 2994   0.021022    -7.355122     -6.848434       0.066889       0.000452
 2995   0.021054    -7.377668     -6.871165       0.066888       0.000452
 2996   0.021093    -7.400422     -6.894181       0.066888       0.000452
 2997   0.021129    -7.423922     -6.918334       0.066887       0.000452
 2998   0.021154    -7.445605     -6.939269       0.066887       0.000452
 2999   0.021157    -7.464979     -6.957389       0.066887       0.000452
 3000   0.021165    -7.485164     -6.977464       0.066886       0.000452

---------------------- Local Time Stepping Summary ----------------------
MG level: 0 -> Min. DT: 0.000497816. Max. DT: 3.6287. CFL: 10.
MG level: 1 -> Min. DT: 0.000799996. Max. DT: 5.71116. CFL: 8.35917.
MG level: 2 -> Min. DT: 0.00155938. Max. DT: 8.31074. CFL: 7.39444.
-------------------------------------------------------------------------

----------------------- Residual Evolution Summary ----------------------
log10[Maximum residual]: -6.33333.
Maximum residual point 523, located at (0.592171, 0.0727562).
-------------------------------------------------------------------------

 Iter    Time(s)     Res[Rho]     Res[RhoE]      CL(Total)      CD(Total)
 3001   0.021189    -7.506824     -6.999369       0.066886       0.000452
 3002   0.021200    -7.529108     -7.022183       0.066885       0.000452
 3003   0.021223    -7.550353     -7.042777       0.066885       0.000452
 3004   0.021261    -7.572612     -7.065414       0.066885       0.000452
 3005   0.021302    -7.595152     -7.087927       0.066885       0.000452
 3006   0.021331    -7.615251     -7.107383       0.066884       0.000452
 3007   0.021362    -7.634543     -7.125462       0.066884       0.000452
 3008   0.021387    -7.656676     -7.148539       0.066884       0.000452
 3009   0.021424    -7.679590     -7.172079       0.066884       0.000452
 3010   0.021452    -7.700233     -7.192078       0.066884       0.000452
 3011   0.021475    -7.721706     -7.213230       0.066884       0.000452
 3012   0.021496    -7.745726     -7.238357       0.066884       0.000452
 3013   0.021491    -7.769790     -7.262985       0.066885       0.000452
 3014   0.021483    -7.794126     -7.287544       0.066885       0.000452
 3015   0.021489    -7.818765     -7.312401       0.066885       0.000452
 3016   0.021479    -7.844419     -7.338736       0.066885       0.000452
 3017   0.021482    -7.870767     -7.365852       0.066885       0.000452
 3018   0.021485    -7.897617     -7.393453       0.066886       0.000452
 3019   0.021486    -7.925184     -7.421899       0.066886       0.000452
 3020   0.021497    -7.952868     -7.450346       0.066886       0.000452
 3021   0.021516    -7.980184     -7.478042       0.066887       0.000452
 3022   0.021538    -8.006956     -7.504859       0.066887       0.000452
 3023   0.021578    -8.032775     -7.530279       0.066887       0.000452
 3024   0.021626    -8.056506     -7.552849       0.066888       0.000452
 3025   0.021648    -8.076489     -7.570410       0.066888       0.000452
 3026   0.021674    -8.093754     -7.584912       0.066889       0.000452
 3027   0.021664    -8.109032     -7.597487       0.066889       0.000452
 3028   0.021664    -8.122844     -7.608833       0.066889       0.000452
 3029   0.021671    -8.134709     -7.618120       0.066890       0.000452
 3030   0.021672    -8.146362     -7.627757       0.066890       0.000452
 3031   0.021682    -8.158875     -7.639013       0.066890       0.000452
 3032   0.021687    -8.172563     -7.652049       0.066891       0.000452
 3033   0.021701    -8.187553     -7.666827       0.066891       0.000452
 3034   0.021712    -8.204486     -7.684127       0.066892       0.000452
 3035   0.021720    -8.222906     -7.703219       0.066892       0.000452
 3036   0.021731    -8.241868     -7.722748       0.066892       0.000452
 3037   0.021724    -8.261288     -7.742676       0.066893       0.000452
 3038   0.021742    -8.280880     -7.762676       0.066893       0.000452
 3039   0.021758    -8.299343     -7.781001       0.066893       0.000452
 3040   0.021756    -8.317203     -7.798527       0.066893       0.000452

---------------------- Local Time Stepping Summary ----------------------
MG level: 0 -> Min. DT: 0.000497811. Max. DT: 3.6287. CFL: 10.
MG level: 1 -> Min. DT: 0.000799996. Max. DT: 5.71116. CFL: 8.35917.
MG level: 2 -> Min. DT: 0.00155937. Max. DT: 8.31074. CFL: 7.39444.
-------------------------------------------------------------------------

----------------------- Residual Evolution Summary ----------------------
log10[Maximum residual]: -7.16219.
Maximum residual point 378, located at (0.394397, 0.0615097).
-------------------------------------------------------------------------

 Iter    Time(s)     Res[Rho]     Res[RhoE]      CL(Total)      CD(Total)
 3041   0.021763    -8.335603     -7.816889       0.066894       0.000452
 3042   0.021772    -8.353402     -7.834423       0.066894       0.000452
 3043   0.021775    -8.369139     -7.849195       0.066894       0.000452
 3044   0.021769    -8.384924     -7.864338       0.066894       0.000452
 3045   0.021766    -8.401998     -7.881511       0.066895       0.000452
 3046   0.021758    -8.417391     -7.896407       0.066895       0.000452
 3047   0.021755    -8.432476     -7.911056       0.066895       0.000452
 3048   0.021764    -8.452975     -7.933400       0.066895       0.000452
 3049   0.021764    -8.476270     -7.959228       0.066896       0.000452
 3050   0.021768    -8.497060     -7.980778       0.066896       0.000452
 3051   0.021776    -8.521183     -8.006957       0.066896       0.000452
 3052   0.021781    -8.548544     -8.037439       0.066896       0.000452
 3053   0.021781    -8.569626     -8.057982       0.066896       0.000452
 3054   0.021783    -8.589295     -8.077092       0.066896       0.000452
 3055   0.021779    -8.610229     -8.098768       0.066897       0.000452
 3056   0.021785    -8.625558     -8.112335       0.066897       0.000452
 3057   0.021794    -8.639891     -8.125301       0.066897       0.000452
 3058   0.021788    -8.657124     -8.143116       0.066897       0.000452
 3059   0.021796    -8.671209     -8.156120       0.066897       0.000452
 3060   0.021804    -8.684272     -8.167939       0.066897       0.000452
 3061   0.021803    -8.701312     -8.185886       0.066898       0.000452
 3062   0.021796    -8.717068     -8.201477       0.066898       0.000452
 3063   0.021795    -8.730044     -8.212958       0.066898       0.000452
 3064   0.021793    -8.746346     -8.229688       0.066898       0.000452
 3065   0.021804    -8.763471     -8.247302       0.066898       0.000452
 3066   0.021809    -8.776221     -8.258284       0.066898       0.000452
 3067   0.021842    -8.789981     -8.271301       0.066898       0.000452
 3068   0.021872    -8.806814     -8.288890       0.066899       0.000452
 3069   0.021882    -8.819141     -8.299583       0.066899       0.000452
 3070   0.021894    -8.828150     -8.306117       0.066899       0.000452
 3071   0.021897    -8.841902     -8.320137       0.066899       0.000452
 3072   0.021897    -8.856352     -8.334791       0.066899       0.000452
 3073   0.021902    -8.864040     -8.339655       0.066899       0.000452
 3074   0.021902    -8.872347     -8.346238       0.066899       0.000452
 3075   0.021903    -8.887735     -8.363100       0.066899       0.000452
 3076   0.021913    -8.901310     -8.376582       0.066899       0.000452
 3077   0.021927    -8.907227     -8.379328       0.066900       0.000452
 3078   0.021929    -8.917026     -8.388353       0.066900       0.000452
 3079   0.021926    -8.934834     -8.408574       0.066900       0.000452
 3080   0.021934    -8.948327     -8.421713       0.066900       0.000452

---------------------- Local Time Stepping Summary ----------------------
MG level: 0 -> Min. DT: 0.00049781. Max. DT: 3.6287. CFL: 10.
MG level: 1 -> Min. DT: 0.000799997. Max. DT: 5.71116. CFL: 8.35917.
MG level: 2 -> Min. DT: 0.00155937. Max. DT: 8.31074. CFL: 7.39444.
-------------------------------------------------------------------------

----------------------- Residual Evolution Summary ----------------------
log10[Maximum residual]: -7.77714.
Maximum residual point 436, located at (0.36366, 0.0609835).
-------------------------------------------------------------------------

 Iter    Time(s)     Res[Rho]     Res[RhoE]      CL(Total)      CD(Total)
 3081   0.021936    -8.954009     -8.424190       0.066900       0.000452
 3082   0.021933    -8.966591     -8.437057       0.066900       0.000452
 3083   0.021939    -8.987352     -8.461076       0.066900       0.000452
 3084   0.021951    -9.000017     -8.472648       0.066900       0.000452
 3085   0.021953    -9.005569     -8.474914       0.066900       0.000452
 3086   0.021952    -9.022323     -8.493493       0.066900       0.000452
 3087   0.021953    -9.045958     -8.521059       0.066900       0.000452
 3088   0.021950    -9.054852     -8.526964       0.066900       0.000452
 3089   0.021945    -9.061096     -8.530286       0.066901       0.000452
 3090   0.021940    -9.085036     -8.558926       0.066901       0.000452
 3091   0.021932    -9.108526     -8.585486       0.066901       0.000452
 3092   0.021925    -9.109790     -8.580734       0.066901       0.000452
 3093   0.021918    -9.121762     -8.592303       0.066901       0.000452
 3094   0.021927    -9.155239     -8.634424       0.066901       0.000452
 3095   0.021925    -9.166920     -8.643305       0.066901       0.000452
 3096   0.021931    -9.163993     -8.633500       0.066901       0.000452
 3097   0.021931    -9.191593     -8.667597       0.066901       0.000452
 3098   0.021926    -9.225028     -8.708458       0.066901       0.000452
 3099   0.021932    -9.216558     -8.689517       0.066901       0.000452
 3100   0.021934    -9.225254     -8.696540       0.066901       0.000452
 3101   0.021938    -9.268293     -8.753316       0.066901       0.000452
 3102   0.021936    -9.276645     -8.756856       0.066901       0.000452
 3103   0.021931    -9.266743     -8.737479       0.066901       0.000452
 3104   0.021932    -9.299202     -8.778771       0.066901       0.000452
 3105   0.021931    -9.337162     -8.826003       0.066901       0.000452
 3106   0.021937    -9.321692     -8.797051       0.066901       0.000452
 3107   0.021934    -9.328511     -8.801510       0.066901       0.000452
 3108   0.021907    -9.370459     -8.857124       0.066901       0.000452
 3109   0.021897    -9.383507     -8.867512       0.066902       0.000452
 3110   0.021900    -9.368149     -8.840756       0.066902       0.000452
 3111   0.021904    -9.391836     -8.869643       0.066902       0.000452
 3112   0.021925    -9.421098     -8.906250       0.066902       0.000452
 3113   0.021946    -9.419761     -8.897680       0.066902       0.000452
 3114   0.021955    -9.413643     -8.884948       0.066902       0.000452
 3115   0.021961    -9.430154     -8.904950       0.066902       0.000452
 3116   0.021964    -9.450308     -8.929414       0.066902       0.000452
 3117   0.021962    -9.458311     -8.934987       0.066902       0.000452
 3118   0.021957    -9.454010     -8.925091       0.066902       0.000452
 3119   0.021952    -9.471118     -8.945334       0.066902       0.000452
 3120   0.021951    -9.493177     -8.971926       0.066902       0.000452

---------------------- Local Time Stepping Summary ----------------------
MG level: 0 -> Min. DT: 0.000497809. Max. DT: 3.6287. CFL: 10.
MG level: 1 -> Min. DT: 0.000799997. Max. DT: 5.71116. CFL: 8.35917.
MG level: 2 -> Min. DT: 0.00155937. Max. DT: 8.31074. CFL: 7.39444.
-------------------------------------------------------------------------

----------------------- Residual Evolution Summary ----------------------
log10[Maximum residual]: -8.27699.
Maximum residual point 1353, located at (0.353517, 0.156508).
-------------------------------------------------------------------------

 Iter    Time(s)     Res[Rho]     Res[RhoE]      CL(Total)      CD(Total)
 3121   0.021961    -9.502096     -8.978607       0.066902       0.000452
 3122   0.021967    -9.500777     -8.972549       0.066902       0.000452
 3123   0.021970    -9.527429     -9.005474       0.066902       0.000452
 3124   0.021981    -9.546416     -9.026312       0.066902       0.000452
 3125   0.021987    -9.544990     -9.018993       0.066902       0.000452
 3126   0.021993    -9.565360     -9.041871       0.066902       0.000452
 3127   0.021998    -9.593581     -9.077239       0.066902       0.000452
 3128   0.022003    -9.583452     -9.058864       0.066902       0.000452
 3129   0.022007    -9.622140     -9.107333       0.066902       0.000452
 3130   0.022009    -9.636904     -9.120925       0.066902       0.000452
 3131   0.022008    -9.630257     -9.106389       0.066902       0.000452

-------------------------- File Output Summary --------------------------
Writing comma-separated values (CSV) surface files.
Merging coordinates in the Master node.
Merging solution in the Master node.
Writing SU2 native restart file.
Writing the forces breakdown file.
-------------------------------------------------------------------------

 3132   0.022218    -9.665643     -9.150887       0.066902       0.000452
 3133   0.022220    -9.674685     -9.157081       0.066902       0.000452
 3134   0.022223    -9.680364     -9.158329       0.066902       0.000452
 3135   0.022216    -9.710461     -9.195862       0.066902       0.000452
 3136   0.022216    -9.721470     -9.203929       0.066902       0.000452
 3137   0.022215    -9.750771     -9.236482       0.066902       0.000452
 3138   0.022209    -9.769962     -9.255865       0.066902       0.000452
 3139   0.022209    -9.782609     -9.265025       0.066902       0.000452
 3140   0.022207    -9.810687     -9.298414       0.066902       0.000452
 3141   0.022206    -9.824742     -9.310229       0.066902       0.000452
 3142   0.022211    -9.846277     -9.331784       0.066902       0.000452
 3143   0.022213    -9.860057     -9.344998       0.066902       0.000452
 3144   0.022210    -9.879924     -9.364854       0.066902       0.000452
 3145   0.022205    -9.893863     -9.378659       0.066902       0.000452
 3146   0.022194    -9.905756     -9.387672       0.066902       0.000452
 3147   0.022179    -9.920898     -9.404344       0.066902       0.000452
 3148   0.022176    -9.928715     -9.408678       0.066902       0.000452
 3149   0.022176    -9.945512     -9.427741       0.066902       0.000452
 3150   0.022175    -9.953927     -9.433133       0.066902       0.000452
 3151   0.022178    -9.970859     -9.451932       0.066902       0.000452
 3152   0.022181    -9.981836     -9.460977       0.066902       0.000452
 3153   0.022194    -9.998071     -9.478437       0.066902       0.000452
 3154   0.022212   -10.010761     -9.489968       0.066902       0.000452
 3155   0.022232   -10.023349     -9.502372       0.066902       0.000452
 3156   0.022239   -10.046438     -9.528508       0.066902       0.000452
 3157   0.022242   -10.056140     -9.535157       0.066902       0.000452
 3158   0.022241   -10.077571     -9.559112       0.066902       0.000452
 3159   0.022242   -10.083143     -9.561411       0.066902       0.000452
 3160   0.022238   -10.103902     -9.585034       0.066902       0.000452

---------------------- Local Time Stepping Summary ----------------------
MG level: 0 -> Min. DT: 0.000497809. Max. DT: 3.6287. CFL: 10.
MG level: 1 -> Min. DT: 0.000799997. Max. DT: 5.71116. CFL: 8.35917.
MG level: 2 -> Min. DT: 0.00155937. Max. DT: 8.31074. CFL: 7.39444.
-------------------------------------------------------------------------

----------------------- Residual Evolution Summary ----------------------
log10[Maximum residual]: -8.95091.
Maximum residual point 838, located at (0.348039, 0.0929918).
-------------------------------------------------------------------------

 Iter    Time(s)     Res[Rho]     Res[RhoE]      CL(Total)      CD(Total)
 3161   0.022234   -10.120561     -9.601967       0.066902       0.000452
 3162   0.022236   -10.140053     -9.622314       0.066902       0.000452
 3163   0.022235   -10.140665     -9.617332       0.066902       0.000452
 3164   0.022235   -10.165927     -9.649047       0.066902       0.000452
 3165   0.022230   -10.176831     -9.657832       0.066902       0.000452
 3166   0.022237   -10.198773     -9.682185       0.066902       0.000452
 3167   0.022246   -10.189983     -9.664582       0.066902       0.000452
 3168   0.022255   -10.226129     -9.712678       0.066902       0.000452
 3169   0.022262   -10.242803     -9.727699       0.066902       0.000452
 3170   0.022264   -10.249247     -9.728533       0.066902       0.000452
 3171   0.022265   -10.272290     -9.755967       0.066902       0.000452
 3172   0.022263   -10.282085     -9.763309       0.066902       0.000452
 3173   0.022262   -10.305196     -9.790344       0.066902       0.000452
 3174   0.022264   -10.323584     -9.809206       0.066902       0.000452
 3175   0.022262   -10.305574     -9.778643       0.066902       0.000452
 3176   0.022254   -10.342877     -9.830863       0.066902       0.000452
 3177   0.022255   -10.346853     -9.830616       0.066902       0.000452
 3178   0.022256   -10.345070     -9.822640       0.066902       0.000452
 3179   0.022251   -10.381722     -9.871989       0.066902       0.000452
 3180   0.022252   -10.380695     -9.863632       0.066902       0.000452
 3181   0.022252   -10.391763     -9.873794       0.066902       0.000452
 3182   0.022255   -10.430771     -9.924009       0.066902       0.000452
 3183   0.022263   -10.424677     -9.906868       0.066902       0.000452
 3184   0.022262   -10.420886     -9.896054       0.066902       0.000452
 3185   0.022259   -10.453251     -9.938568       0.066902       0.000452
 3186   0.022259   -10.457426     -9.937985       0.066902       0.000452
 3187   0.022258   -10.448340     -9.920217       0.066902       0.000452
 3188   0.022259   -10.476611     -9.956462       0.066902       0.000452
 3189   0.022259   -10.508438     -9.996407       0.066902       0.000452
 3190   0.022259   -10.495552     -9.971302       0.066902       0.000452
 3191   0.022260   -10.519267     -9.999128       0.066902       0.000452
 3192   0.022260   -10.561986    -10.056047       0.066902       0.000452
 3193   0.022261   -10.554516    -10.036165       0.066902       0.000452
 3194   0.022263   -10.580358    -10.065421       0.066902       0.000452
 3195   0.022258   -10.616150    -10.110621       0.066902       0.000452
 3196   0.022261   -10.609653    -10.092365       0.066902       0.000452
 3197   0.022277   -10.641022    -10.129983       0.066902       0.000452
 3198   0.022290   -10.669426    -10.163309       0.066902       0.000452
 3199   0.022306   -10.658092    -10.138927       0.066902       0.000452
 3200   0.022308   -10.698258    -10.190635       0.066902       0.000452

---------------------- Local Time Stepping Summary ----------------------
MG level: 0 -> Min. DT: 0.000497809. Max. DT: 3.6287. CFL: 10.
MG level: 1 -> Min. DT: 0.000799997. Max. DT: 5.71116. CFL: 8.35917.
MG level: 2 -> Min. DT: 0.00155937. Max. DT: 8.31074. CFL: 7.39444.
-------------------------------------------------------------------------

----------------------- Residual Evolution Summary ----------------------
log10[Maximum residual]: -9.5793.
Maximum residual point 1353, located at (0.353517, 0.156508).
-------------------------------------------------------------------------

 Iter    Time(s)     Res[Rho]     Res[RhoE]      CL(Total)      CD(Total)
 3201   0.022306   -10.720919    -10.214484       0.066902       0.000452
 3202   0.022302   -10.711545    -10.192468       0.066902       0.000452
 3203   0.022300   -10.756103    -10.251047       0.066902       0.000452
 3204   0.022302   -10.774623    -10.267420       0.066902       0.000452
 3205   0.022302   -10.771939    -10.254153       0.066902       0.000452
 3206   0.022308   -10.810783    -10.304171       0.066902       0.000452
 3207   0.022313   -10.824736    -10.314283       0.066902       0.000452
 3208   0.022319   -10.832228    -10.315628       0.066902       0.000452
 3209   0.022327   -10.867076    -10.359196       0.066902       0.000452
 3210   0.022327   -10.871745    -10.356258       0.066902       0.000452
 3211   0.022328   -10.890221    -10.374479       0.066902       0.000452
 3212   0.022330   -10.922065    -10.413251       0.066902       0.000452
 3213   0.022333   -10.923799    -10.405922       0.066902       0.000452
 3214   0.022332   -10.950773    -10.436736       0.066902       0.000452
 3215   0.022335   -10.979780    -10.470503       0.066902       0.000452
 3216   0.022339   -10.978828    -10.459291       0.066902       0.000452
 3217   0.022343   -11.015176    -10.504137       0.066902       0.000452
 3218   0.022340   -11.038994    -10.528523       0.066902       0.000452
 3219   0.022340   -11.046687    -10.528846       0.066902       0.000452
 3220   0.022338   -11.079163    -10.567746       0.066902       0.000452
 3221   0.022340   -11.092248    -10.576802       0.066902       0.000452
 3222   0.022335   -11.124541    -10.613814       0.066902       0.000452
 3223   0.022330   -11.144448    -10.631329       0.066902       0.000452
 3224   0.022328   -11.169715    -10.657037       0.066902       0.000452
 3225   0.022324   -11.191316    -10.677741       0.066902       0.000452
 3226   0.022323   -11.218685    -10.707077       0.066902       0.000452
 3227   0.022325   -11.233223    -10.717103       0.066902       0.000452
 3228   0.022331   -11.259497    -10.745893       0.066902       0.000452
 3229   0.022329   -11.276755    -10.760800       0.066902       0.000452
 3230   0.022322   -11.305960    -10.793467       0.066902       0.000452
 3231   0.022317   -11.317823    -10.800032       0.066902       0.000452
 3232   0.022315   -11.347581    -10.834326       0.066902       0.000452
 3233   0.022313   -11.359990    -10.842244       0.066902       0.000452
 3234   0.022312   -11.392452    -10.880444       0.066902       0.000452
 3235   0.022309   -11.404753    -10.887704       0.066902       0.000452
 3236   0.022308   -11.433859    -10.920607       0.066902       0.000452
 3237   0.022305   -11.448002    -10.931198       0.066902       0.000452
 3238   0.022304   -11.478783    -10.966820       0.066902       0.000452
 3239   0.022307   -11.486261    -10.968028       0.066902       0.000452
 3240   0.022302   -11.519029    -11.007620       0.066902       0.000452

---------------------- Local Time Stepping Summary ----------------------
MG level: 0 -> Min. DT: 0.000497809. Max. DT: 3.6287. CFL: 10.
MG level: 1 -> Min. DT: 0.000799997. Max. DT: 5.71116. CFL: 8.35917.
MG level: 2 -> Min. DT: 0.00155937. Max. DT: 8.31074. CFL: 7.39444.
-------------------------------------------------------------------------

----------------------- Residual Evolution Summary ----------------------
log10[Maximum residual]: -10.3517.
Maximum residual point 838, located at (0.348039, 0.0929918).
-------------------------------------------------------------------------

 Iter    Time(s)     Res[Rho]     Res[RhoE]      CL(Total)      CD(Total)
 3241   0.022299   -11.532080    -11.016672       0.066902       0.000452
 3242   0.022330   -11.561038    -11.049461       0.066902       0.000452
 3243   0.022344   -11.577945    -11.064076       0.066902       0.000452
 3244   0.022348   -11.600617    -11.087854       0.066902       0.000452
 3245   0.022348   -11.616452    -11.102119       0.066902       0.000452
 3246   0.022351   -11.640816    -11.129136       0.066902       0.000452
 3247   0.022354   -11.659965    -11.147657       0.066902       0.000452
 3248   0.022351   -11.677444    -11.164546       0.066902       0.000452
 3249   0.022352   -11.694453    -11.181572       0.066902       0.000452
 3250   0.022347   -11.720881    -11.212410       0.066902       0.000452
 3251   0.022348   -11.736600    -11.225290       0.066902       0.000452
 3252   0.022355   -11.755864    -11.245354       0.066902       0.000452
 3253   0.022355   -11.769864    -11.258151       0.066902       0.000452
 3254   0.022359   -11.795183    -11.287648       0.066902       0.000452
 3255   0.022356   -11.808554    -11.298209       0.066902       0.000452
 3256   0.022354   -11.826256    -11.316062       0.066902       0.000452
 3257   0.022352   -11.841728    -11.331688       0.066902       0.000452
 3258   0.022349   -11.866085    -11.359627       0.066902       0.000452
 3259   0.022354   -11.882616    -11.373926       0.066902       0.000452
 3260   0.022359   -11.884187    -11.369254       0.066902       0.000452
 3261   0.022369   -11.919354    -11.415194       0.066902       0.000452
 3262   0.022372   -11.932262    -11.424150       0.066902       0.000452
 3263   0.022369   -11.931358    -11.415548       0.066902       0.000452
 3264   0.022354   -11.970383    -11.467648       0.066902       0.000452
 3265   0.022337   -11.989839    -11.485179       0.066902       0.000452
 3266   0.022321   -12.007840    -11.500349       0.066902       0.000452
 3267   0.022306   -12.034468    -11.530591       0.066902       0.000452
 3268   0.022292   -12.034847    -11.521387       0.066902       0.000452
 3269   0.022276   -12.049116    -11.536208       0.066902       0.000452
 3270   0.022260   -12.062283    -11.550685       0.066902       0.000452
 3271   0.022245   -12.072139    -11.558157       0.066902       0.000452
 3272   0.022229   -12.103740    -11.597000       0.066902       0.000452

-------------------------- File Output Summary --------------------------
Writing comma-separated values (CSV) surface files.
Merging coordinates in the Master node.
Merging solution in the Master node.
Writing SU2 native restart file.
Writing the forces breakdown file.
-------------------------------------------------------------------------

History file, closed.

------------------------- Solver Postprocessing -------------------------
Deleted CNumerics container.
Deleted CIntegration container.
Deleted CSolver container.
Deleted CIteration container.
Deleted CInterpolator container.
Deleted CTransfer container.
Deleted CGeometry container.
Deleted CFreeFormDefBox class.
Deleted CSurfaceMovement class.
Deleted CVolumetricMovement class.
Deleted CConfig container.
Deleted COutput class.
-------------------------------------------------------------------------

Completed in 8.772355 seconds on 8 cores.

------------------------- Exit Success (SU2_CFD) ------------------------


-------------------------------------------------------------------------
|    ___ _   _ ___                                                      |
|   / __| | | |_  )   Release 5.0.0  "Raven"                            |
|   \__ \ |_| |/ /                                                      |
|   |___/\___//___|   Suite (Solution Exporting Code)                   |
|                                                                       |
-------------------------------------------------------------------------
| SU2 Original Developers: Dr. Francisco D. Palacios.                   |
|                          Dr. Thomas D. Economon.                      |
-------------------------------------------------------------------------
| SU2 Developers:                                                       |
| - Prof. Juan J. Alonso's group at Stanford University.                |
| - Prof. Piero Colonna's group at Delft University of Technology.      |
| - Prof. Nicolas R. Gauger's group at Kaiserslautern U. of Technology. |
| - Prof. Alberto Guardone's group at Polytechnic University of Milan.  |
| - Prof. Rafael Palacios' group at Imperial College London.            |
| - Prof. Edwin van der Weide's group at the University of Twente.      |
| - Prof. Vincent Terrapon's group at the University of Liege.          |
-------------------------------------------------------------------------
| Copyright (C) 2012-2017 SU2, the open-source CFD code.                |
|                                                                       |
| SU2 is free software; you can redistribute it and/or                  |
| modify it under the terms of the GNU Lesser General Public            |
| License as published by the Free Software Foundation; either          |
| version 2.1 of the License, or (at your option) any later version.    |
|                                                                       |
| SU2 is distributed in the hope that it will be useful,                |
| but WITHOUT ANY WARRANTY; without even the implied warranty of        |
| MERCHANTABILITY or FITNESS FOR A PARTICULAR PURPOSE. See the GNU      |
| Lesser General Public License for more details.                       |
|                                                                       |
| You should have received a copy of the GNU Lesser General Public      |
| License along with SU2. If not, see <http://www.gnu.org/licenses/>.   |
-------------------------------------------------------------------------

------------------------ Physical Case Definition -----------------------
Input mesh file name: mesh_NACA0012_inv_deform.su2

-------------------------- Output Information ---------------------------
The output file format is Tecplot ASCII (.dat).
Flow variables file name: flow.

------------------- Config File Boundary Information --------------------
Euler wall boundary marker(s): airfoil.
Far-field boundary marker(s): farfield.

---------------------- Read Grid File Information -----------------------
Two dimensional problem.
5233 points before parallel partitioning.
Performing linear partitioning of the grid nodes.
10216 interior elements before parallel partitioning.
Calling the partitioning functions.
Building the graph adjacency structure.
Distributing elements across all ranks.
2 surface markers.
200 boundary elements in index 0 (Marker = airfoil).
50 boundary elements in index 1 (Marker = farfield).
Calling ParMETIS...
Finished partitioning using ParMETIS (547 edge cuts).
Communicating partition data and creating halo layers.
10763 interior elements including halo cells. 
10763 triangles.
5796 vertices including ghost points. 
Establishing MPI communication patterns.
Identify vertices.

------------------------- Solution Postprocessing -----------------------
Reading and storing the solution from restart_flow.dat.
Merging connectivities in the Master node.
Merging solution in the Master node.
Writing Tecplot ASCII file (volume grid).
Writing Tecplot ASCII file (surface grid).

Completed in 0.122040 seconds on 8 cores.

------------------------- Exit Success (SU2_SOL) ------------------------

