
-------------------------------------------------------------------------
|    ___ _   _ ___                                                      |
|   / __| | | |_  )   Release 5.0.0  "Raven"                            |
|   \__ \ |_| |/ /                                                      |
|   |___/\___//___|   Suite (Computational Fluid Dynamics Code)         |
|                                                                       |
-------------------------------------------------------------------------
| SU2 Original Developers: Dr. Francisco D. Palacios.                   |
|                          Dr. Thomas D. Economon.                      |
-------------------------------------------------------------------------
| SU2 Developers:                                                       |
| - Prof. Juan J. Alonso's group at Stanford University.                |
| - Prof. Piero Colonna's group at Delft University of Technology.      |
| - Prof. Nicolas R. Gauger's group at Kaiserslautern U. of Technology. |
| - Prof. Alberto Guardone's group at Polytechnic University of Milan.  |
| - Prof. Rafael Palacios' group at Imperial College London.            |
| - Prof. Edwin van der Weide's group at the University of Twente.      |
| - Prof. Vincent Terrapon's group at the University of Liege.          |
-------------------------------------------------------------------------
| Copyright (C) 2012-2017 SU2, the open-source CFD code.                |
|                                                                       |
| SU2 is free software; you can redistribute it and/or                  |
| modify it under the terms of the GNU Lesser General Public            |
| License as published by the Free Software Foundation; either          |
| version 2.1 of the License, or (at your option) any later version.    |
|                                                                       |
| SU2 is distributed in the hope that it will be useful,                |
| but WITHOUT ANY WARRANTY; without even the implied warranty of        |
| MERCHANTABILITY or FITNESS FOR A PARTICULAR PURPOSE. See the GNU      |
| Lesser General Public License for more details.                       |
|                                                                       |
| You should have received a copy of the GNU Lesser General Public      |
| License along with SU2. If not, see <http://www.gnu.org/licenses/>.   |
-------------------------------------------------------------------------

------------------------ Physical Case Definition -----------------------
Compressible Euler equations.
Mach number: 0.8.
Angle of attack (AoA): 1.25 deg, and angle of sideslip (AoS): 0 deg.
Read flow solution from: solution_flow.dat.
Non-Dimensional simulation (P=1.0, Rho=1.0, T=1.0 at the farfield).
The reference length/area (force coefficient) is 1.
The reference length (moment computation) is 1.
Reference origin (moment computation) is (0.25, 0, 0).
Surface(s) where the force coefficients are evaluated: airfoil.
Surface(s) plotted in the output file: airfoil.
Surface(s) affected by the design variables: airfoil.
Input mesh file name: mesh_deform.su2

---------------------- Space Numerical Integration ----------------------
Jameson-Schmidt-Turkel scheme for the flow inviscid terms.
JST viscous coefficients (1st, 2nd & 4th): 0.15, 0.5, 0.02.
The method includes a grid stretching correction (p = 0.3).
Second order integration.
Gradient computation using Green-Gauss theorem.

---------------------- Time Numerical Integration -----------------------
Local time stepping (steady state simulation).
Euler implicit method for the flow equations.
V Multigrid Cycle, with 2 multigrid levels.
Damping factor for the residual restriction: 1.
Damping factor for the correction prolongation: 1.
No CFL adaptation.
Multigrid Level:                       0     1     2
Courant-Friedrichs-Lewy number:       10
MG PreSmooth coefficients:             1     2     3
MG PostSmooth coefficients:            0     0     0
MG CorrecSmooth coefficients:          0     0     0

------------------------- Convergence Criteria --------------------------
Maximum number of iterations: 1000.
Reduce the density residual 6 orders of magnitude.
The minimum bound for the density residual is 10^(-10).
Start convergence criteria at iteration 10.

-------------------------- Output Information ---------------------------
Writing a flow solution every 250 iterations.
Writing the convergence history every 1 iterations.
The output file format is Paraview ASCII (.vtk).
Convergence history file name: history_direct.
Forces breakdown file name: forces_breakdown.dat.
Surface flow coefficients file name: surface_flow.
Flow variables file name: flow.
Restart flow file name: restart_flow.dat.

------------------- Config File Boundary Information --------------------
Euler wall boundary marker(s): airfoil.
Far-field boundary marker(s): farfield.

---------------------- Read Grid File Information -----------------------
Two dimensional problem.
5233 points.
2 surface markers.
200 boundary elements in index 0 (Marker = airfoil).
50 boundary elements in index 1 (Marker = farfield).
10216 triangles.

------------------------- Geometry Preprocessing ------------------------
Setting point connectivity.
Renumbering points (Reverse Cuthill McKee Ordering).
Recomputing point connectivity.
Setting element connectivity.
Checking the numerical grid orientation.
Identifying edges and vertices.
Computing centers of gravity.
Setting the control volume structure.
Area of the computational grid: 1.25e+03.
Searching for the closest normal neighbors to the surfaces.
Compute the surface curvature.
Max K: 7.84e+03. Mean K: 36.9. Standard deviation K: 495.
Checking for periodicity.
Setting the multigrid structure.
MG level: 0 -> CVs: 5233. Agglomeration rate 1/1.00. CFL 10.
MG level: 1 -> CVs: 1533. Agglomeration rate 1/3.41. CFL 8.12.
MG level: 2 -> CVs: 443. Agglomeration rate 1/3.46. CFL 6.55.
Computing wall distances.
Wetted area = 2.03 m.
Area projection in the x-plane = 0.0906 m, y-plane = 1 m.

------------------------- Driver information --------------------------
A Fluid driver has been instantiated.

------------------------ Iteration Preprocessing ------------------------
Zone 1: Euler/Navier-Stokes/RANS flow iteration.

------------------------- Solver Preprocessing --------------------------
Inviscid flow: Computing density based on free-stream
temperature and pressure using the ideal gas law.
Force coefficients computed using free-stream values.
-- Input conditions:
Fluid Model: STANDARD_AIR 
Specific gas constant: 287.058 N.m/kg.K.
Specific gas constant (non-dim): 1
Specific Heat Ratio: 1.4
Free-stream static pressure: 101325 Pa.
Free-stream total pressure: 154454 Pa.
Free-stream temperature: 288.15 K.
Free-stream density: 1.22498 kg/m^3.
Free-stream velocity: (272.173, 5.93883) m/s. Magnitude: 272.238 m/s (529.186 KTS).
Free-stream total energy per unit mass: 243846 m^2/s^2.
-- Reference values:
Reference specific gas constant: 287.058 N.m/kg.K.
Reference pressure: 101325 Pa.
Reference temperature: 288.15 K.
Reference density: 1.22498 kg/m^3.
Reference velocity: 287.603 m/s.
Reference energy per unit mass: 82715.8 m^2/s^2.
-- Resulting non-dimensional state:
Mach number (non-dim): 0.8
Specific gas constant (non-dim): 1
Free-stream temperature (non-dim): 1
Free-stream pressure (non-dim): 1
Free-stream density (non-dim): 1
Free-stream velocity (non-dim): (0.946348, 0.0206494). Magnitude: 0.946573
Free-stream total energy per unit mass (non-dim): 2.948

Initialize Jacobian structure (Euler). MG level: 0.
Initialize Jacobian structure (Euler). MG level: 1.
Initialize Jacobian structure (Euler). MG level: 2.

----------------- Integration and Numerics Preprocessing ----------------
Integration Preprocessing.
Numerics Preprocessing.

------------------------------ Begin Solver -----------------------------

---------------------- Local Time Stepping Summary ----------------------
MG level: 0 -> Min. DT: 0.000490628. Max. DT: 3.63396. CFL: 10.
MG level: 1 -> Min. DT: 0.000777119. Max. DT: 5.55366. CFL: 8.11871.
MG level: 2 -> Min. DT: 0.00104438. Max. DT: 7.42509. CFL: 6.5465.
-------------------------------------------------------------------------

----------------------- Residual Evolution Summary ----------------------
log10[Maximum residual]: -6.08937.
Maximum residual point 117, located at (0.0744, 0.025957).
-------------------------------------------------------------------------

 Iter    Time(s)     Res[Rho]     Res[RhoE]      CL(Total)      CD(Total)
 1948   0.053699    -7.176915     -6.580537       0.032474       0.000405
 1949   0.051759    -7.284266     -6.683714       0.032468       0.000401
 1950   0.056170    -7.291448     -6.696283       0.032463       0.000399
 1951   0.054286    -7.285428     -6.689182       0.032458       0.000399
 1952   0.053060    -7.259370     -6.663355       0.032454       0.000399
 1953   0.052196    -7.230804     -6.634692       0.032450       0.000399
 1954   0.051577    -7.227195     -6.633554       0.032446       0.000399
 1955   0.051280    -7.340063     -6.773734       0.032443       0.000399
 1956   0.050943    -7.336181     -6.770188       0.032440       0.000399
 1957   0.050680    -7.332323     -6.764096       0.032438       0.000399
 1958   0.050585    -7.343030     -6.777515       0.032436       0.000400
 1959   0.050674    -7.361593     -6.801344       0.032435       0.000400
 1960   0.050624    -7.377313     -6.818706       0.032434       0.000400
 1961   0.050443    -7.379971     -6.817971       0.032434       0.000400
 1962   0.050297    -7.369920     -6.801603       0.032434       0.000401
 1963   0.050228    -7.356642     -6.780800       0.032434       0.000401
 1964   0.050210    -7.343792     -6.760615       0.032435       0.000401
 1965   0.050188    -7.337006     -6.748217       0.032436       0.000401
 1966   0.050035    -7.339337     -6.747130       0.032437       0.000402
 1967   0.049963    -7.354938     -6.762119       0.032438       0.000402
 1968   0.049976    -7.390137     -6.801190       0.032439       0.000402
 1969   0.050089    -7.456147     -6.880407       0.032440       0.000402
 1970   0.050039    -7.553781     -7.008129       0.032442       0.000403
 1971   0.049969    -7.615768     -7.090564       0.032443       0.000403
 1972   0.049896    -7.645378     -7.119790       0.032445       0.000403
 1973   0.049850    -7.646512     -7.112511       0.032446       0.000403
 1974   0.049771    -7.649263     -7.112169       0.032448       0.000403
 1975   0.049694    -7.642474     -7.100608       0.032450       0.000403
 1976   0.049651    -7.636454     -7.090956       0.032451       0.000403
 1977   0.049727    -7.624792     -7.074619       0.032453       0.000403
 1978   0.049665    -7.614293     -7.060274       0.032454       0.000403
 1979   0.049643    -7.611510     -7.055781       0.032456       0.000403
 1980   0.049591    -7.618528     -7.063321       0.032457       0.000403
 1981   0.049558    -7.634790     -7.082079       0.032459       0.000403
 1982   0.049519    -7.661882     -7.114555       0.032460       0.000403
 1983   0.049483    -7.700484     -7.162615       0.032461       0.000403
 1984   0.049482    -7.744616     -7.219052       0.032462       0.000403
 1985   0.049448    -7.770918     -7.251595       0.032463       0.000403
 1986   0.049417    -7.779048     -7.258279       0.032464       0.000403
 1987   0.049380    -7.770948     -7.242144       0.032465       0.000402

---------------------- Local Time Stepping Summary ----------------------
MG level: 0 -> Min. DT: 0.000490625. Max. DT: 3.63396. CFL: 10.
MG level: 1 -> Min. DT: 0.00077711. Max. DT: 5.55366. CFL: 8.11871.
MG level: 2 -> Min. DT: 0.00104437. Max. DT: 7.42509. CFL: 6.5465.
-------------------------------------------------------------------------

----------------------- Residual Evolution Summary ----------------------
log10[Maximum residual]: -6.64762.
Maximum residual point 405, located at (0.645018, 0.0515071).
-------------------------------------------------------------------------

 Iter    Time(s)     Res[Rho]     Res[RhoE]      CL(Total)      CD(Total)
 1988   0.049358    -7.764309     -7.230060       0.032466       0.000402
 1989   0.049413    -7.764303     -7.228176       0.032466       0.000402
 1990   0.049398    -7.774029     -7.239424       0.032467       0.000402
 1991   0.049356    -7.793022     -7.262744       0.032467       0.000402
 1992   0.049327    -7.815961     -7.290970       0.032467       0.000402
 1993   0.049357    -7.816358     -7.287472       0.032468       0.000401
 1994   0.049346    -7.823045     -7.294524       0.032468       0.000402
 1995   0.049324    -7.794421     -7.254022       0.032468       0.000402
 1996   0.049294    -7.798875     -7.262090       0.032468       0.000402
 1997   0.049278    -7.851141     -7.335876       0.032468       0.000402
 1998   0.049255    -7.852916     -7.332277       0.032468       0.000402
 1999   0.049227    -7.859669     -7.332262       0.032467       0.000402
 2000   0.049227    -7.859559     -7.326715       0.032467       0.000402
 2001   0.049223    -7.849038     -7.309670       0.032467       0.000402
 2002   0.049202    -7.871700     -7.340636       0.032467       0.000402
 2003   0.049193    -7.875883     -7.342873       0.032467       0.000402
 2004   0.049178    -7.871166     -7.331132       0.032466       0.000402
 2005   0.049189    -7.870503     -7.326309       0.032466       0.000402
 2006   0.049171    -7.871993     -7.325820       0.032466       0.000402
 2007   0.049157    -7.879242     -7.333130       0.032466       0.000402
 2008   0.049147    -7.890107     -7.344874       0.032465       0.000402
 2009   0.049154    -7.904778     -7.361231       0.032465       0.000402
 2010   0.049162    -7.921404     -7.379854       0.032465       0.000402
 2011   0.049139    -7.939508     -7.400195       0.032464       0.000402
 2012   0.049124    -7.958525     -7.421595       0.032464       0.000402
 2013   0.049105    -7.978500     -7.444188       0.032464       0.000402
 2014   0.049088    -7.999424     -7.468021       0.032464       0.000402
 2015   0.049072    -8.021003     -7.492682       0.032463       0.000402
 2016   0.049062    -8.040760     -7.514577       0.032463       0.000402
 2017   0.049057    -8.049811     -7.521585       0.032463       0.000402
 2018   0.049123    -8.054853     -7.525590       0.032463       0.000402
 2019   0.049193    -8.071292     -7.545072       0.032463       0.000402
 2020   0.049219    -8.087325     -7.563571       0.032462       0.000402
 2021   0.049211    -8.092575     -7.564784       0.032462       0.000402
 2022   0.049199    -8.094967     -7.562157       0.032462       0.000402
 2023   0.049178    -8.099792     -7.563687       0.032462       0.000402
 2024   0.049161    -8.106130     -7.567711       0.032462       0.000402
 2025   0.049150    -8.116381     -7.576870       0.032462       0.000402
 2026   0.049134    -8.129941     -7.590115       0.032462       0.000402
 2027   0.049117    -8.146070     -7.606438       0.032462       0.000402

---------------------- Local Time Stepping Summary ----------------------
MG level: 0 -> Min. DT: 0.000490625. Max. DT: 3.63396. CFL: 10.
MG level: 1 -> Min. DT: 0.00077711. Max. DT: 5.55366. CFL: 8.11871.
MG level: 2 -> Min. DT: 0.00104437. Max. DT: 7.42509. CFL: 6.5465.
-------------------------------------------------------------------------

----------------------- Residual Evolution Summary ----------------------
log10[Maximum residual]: -6.90927.
Maximum residual point 616, located at (0.638675, 0.0674316).
-------------------------------------------------------------------------

 Iter    Time(s)     Res[Rho]     Res[RhoE]      CL(Total)      CD(Total)
 2028   0.049097    -8.163929     -7.624829       0.032462       0.000402
 2029   0.049091    -8.182972     -7.644713       0.032462       0.000402
 2030   0.049091    -8.203177     -7.666204       0.032462       0.000402
 2031   0.049085    -8.224740     -7.689688       0.032462       0.000402
 2032   0.049076    -8.247892     -7.715572       0.032462       0.000402
 2033   0.049071    -8.272832     -7.744199       0.032462       0.000402
 2034   0.049065    -8.299547     -7.775613       0.032462       0.000402
 2035   0.049053    -8.327603     -7.809231       0.032463       0.000402
 2036   0.049039    -8.355812     -7.843300       0.032463       0.000402
 2037   0.049026    -8.373744     -7.862754       0.032463       0.000402
 2038   0.049018    -8.394146     -7.885488       0.032463       0.000402
 2039   0.049010    -8.362486     -7.836278       0.032463       0.000402
 2040   0.048999    -8.401628     -7.888471       0.032463       0.000402
 2041   0.048992    -8.406660     -7.890552       0.032463       0.000402
 2042   0.048987    -8.398435     -7.874446       0.032463       0.000402
 2043   0.049213    -8.407004     -7.880235       0.032463       0.000402
 2044   0.049317    -8.408812     -7.877107       0.032463       0.000402
 2045   0.049404    -8.423975     -7.892817       0.032463       0.000402
 2046   0.049426    -8.440677     -7.910646       0.032463       0.000402
 2047   0.049441    -8.460026     -7.931662       0.032463       0.000402
 2048   0.049461    -8.478649     -7.951090       0.032463       0.000402
 2049   0.049454    -8.493671     -7.965278       0.032463       0.000402
 2050   0.049466    -8.505200     -7.974713       0.032463       0.000402
 2051   0.049463    -8.514475     -7.981404       0.032464       0.000402
 2052   0.049452    -8.523111     -7.987689       0.032464       0.000402
 2053   0.049438    -8.532408     -7.995274       0.032464       0.000402
 2054   0.049423    -8.542955     -8.004807       0.032464       0.000402
 2055   0.049411    -8.554620     -8.015971       0.032464       0.000402
 2056   0.049397    -8.566914     -8.028028       0.032464       0.000402
 2057   0.049382    -8.579294     -8.040230       0.032464       0.000402
 2058   0.049369    -8.591436     -8.052166       0.032464       0.000402
 2059   0.049366    -8.603283     -8.063789       0.032464       0.000402
 2060   0.049352    -8.615007     -8.075352       0.032464       0.000402
 2061   0.049338    -8.626914     -8.087268       0.032464       0.000402
 2062   0.049380    -8.639357     -8.099993       0.032463       0.000402
 2063   0.049370    -8.652698     -8.113982       0.032463       0.000402
 2064   0.049364    -8.667289     -8.129677       0.032463       0.000402
 2065   0.049364    -8.683463     -8.147502       0.032463       0.000402
 2066   0.049380    -8.701498     -8.167815       0.032463       0.000402
 2067   0.049496    -8.721489     -8.190742       0.032463       0.000402

---------------------- Local Time Stepping Summary ----------------------
MG level: 0 -> Min. DT: 0.000490626. Max. DT: 3.63396. CFL: 10.
MG level: 1 -> Min. DT: 0.00077711. Max. DT: 5.55366. CFL: 8.11871.
MG level: 2 -> Min. DT: 0.00104437. Max. DT: 7.42509. CFL: 6.5465.
-------------------------------------------------------------------------

----------------------- Residual Evolution Summary ----------------------
log10[Maximum residual]: -7.46326.
Maximum residual point 261, located at (0.583328, 0.0560969).
-------------------------------------------------------------------------

 Iter    Time(s)     Res[Rho]     Res[RhoE]      CL(Total)      CD(Total)
 2068   0.049485    -8.743001     -8.215679       0.032463       0.000402
 2069   0.049477    -8.764029     -8.239769       0.032463       0.000402
 2070   0.049465    -8.778110     -8.253900       0.032463       0.000402
 2071   0.049460    -8.779072     -8.252081       0.032463       0.000402
 2072   0.049451    -8.772500     -8.239962       0.032463       0.000402
 2073   0.049439    -8.782128     -8.252694       0.032463       0.000402
 2074   0.049429    -8.808925     -8.288804       0.032463       0.000402
 2075   0.049414    -8.812328     -8.287794       0.032463       0.000402
 2076   0.049402    -8.815447     -8.286053       0.032463       0.000402
 2077   0.049391    -8.828819     -8.298880       0.032463       0.000402
 2078   0.049389    -8.841508     -8.311116       0.032463       0.000402
 2079   0.049385    -8.858033     -8.328372       0.032463       0.000402
 2080   0.049389    -8.876611     -8.348244       0.032463       0.000402
 2081   0.049377    -8.895226     -8.367984       0.032463       0.000402
 2082   0.049372    -8.913161     -8.386670       0.032463       0.000402
 2083   0.049362    -8.929709     -8.403442       0.032463       0.000402
 2084   0.049350    -8.945203     -8.418866       0.032463       0.000402
 2085   0.049457    -8.960606     -8.434333       0.032463       0.000402
 2086   0.049453    -8.976758     -8.451000       0.032463       0.000402
 2087   0.049439    -8.994405     -8.469848       0.032463       0.000402
 2088   0.049427    -9.013954     -8.491364       0.032463       0.000402
 2089   0.049417    -9.035397     -8.515439       0.032463       0.000402
 2090   0.049450    -9.058407     -8.541520       0.032463       0.000402
 2091   0.049470    -9.082423     -8.568742       0.032463       0.000402
 2092   0.049460    -9.106754     -8.596071       0.032463       0.000402
 2093   0.049450    -9.130650     -8.622432       0.032463       0.000402
 2094   0.049444    -9.153489     -8.647012       0.032463       0.000402
 2095   0.049435    -9.175063     -8.669684       0.032463       0.000402
 2096   0.049421    -9.195632     -8.690987       0.032463       0.000402
 2097   0.049408    -9.215611     -8.711604       0.032463       0.000402
 2098   0.049397    -9.235008     -8.731534       0.032463       0.000402
 2099   0.049388    -9.249888     -8.745122       0.032463       0.000402
 2100   0.049377    -9.258580     -8.750207       0.032463       0.000402
 2101   0.049368    -9.226769     -8.701876       0.032463       0.000402
 2102   0.049359    -9.267270     -8.757249       0.032463       0.000402
 2103   0.049379    -9.283520     -8.776193       0.032463       0.000402
 2104   0.049369    -9.280370     -8.762124       0.032463       0.000402
 2105   0.049363    -9.284233     -8.760666       0.032463       0.000402
 2106   0.049371    -9.296978     -8.773470       0.032463       0.000402
 2107   0.049368    -9.308749     -8.784961       0.032463       0.000402

---------------------- Local Time Stepping Summary ----------------------
MG level: 0 -> Min. DT: 0.000490626. Max. DT: 3.63396. CFL: 10.
MG level: 1 -> Min. DT: 0.00077711. Max. DT: 5.55366. CFL: 8.11871.
MG level: 2 -> Min. DT: 0.00104437. Max. DT: 7.42509. CFL: 6.5465.
-------------------------------------------------------------------------

----------------------- Residual Evolution Summary ----------------------
log10[Maximum residual]: -8.00647.
Maximum residual point 261, located at (0.583328, 0.0560969).
-------------------------------------------------------------------------

 Iter    Time(s)     Res[Rho]     Res[RhoE]      CL(Total)      CD(Total)
 2108   0.049357    -9.324384     -8.801462       0.032463       0.000402
 2109   0.049348    -9.340073     -8.817726       0.032463       0.000402
 2110   0.049335    -9.355302     -8.833137       0.032463       0.000402
 2111   0.049331    -9.369407     -8.846883       0.032463       0.000402
 2112   0.049330    -9.382859     -8.859785       0.032463       0.000402
 2113   0.049324    -9.395778     -8.872051       0.032463       0.000402
 2114   0.049315    -9.408125     -8.883618       0.032463       0.000402
 2115   0.049308    -9.419934     -8.894538       0.032463       0.000402
 2116   0.049298    -9.431549     -8.905310       0.032463       0.000402
 2117   0.049291    -9.443530     -8.916709       0.032463       0.000402
 2118   0.049288    -9.456591     -8.929690       0.032463       0.000402
 2119   0.049280    -9.471471     -8.945227       0.032463       0.000402
 2120   0.049274    -9.488855     -8.964221       0.032463       0.000402
 2121   0.049272    -9.509274     -8.987388       0.032463       0.000402
 2122   0.049266    -9.532882     -9.014942       0.032463       0.000402
 2123   0.049258    -9.558811     -9.045647       0.032463       0.000402
 2124   0.049260    -9.583035     -9.073654       0.032463       0.000402
 2125   0.049252    -9.599008     -9.090758       0.032463       0.000402
 2126   0.049247    -9.614210     -9.105571       0.032463       0.000402
 2127   0.049243    -9.621288     -9.108389       0.032463       0.000402
 2128   0.049264    -9.623593     -9.105743       0.032463       0.000402
 2129   0.049321    -9.626382     -9.105158       0.032463       0.000402
 2130   0.049319    -9.631352     -9.108307       0.032463       0.000402
 2131   0.049326    -9.638565     -9.114643       0.032463       0.000402
 2132   0.049339    -9.647598     -9.123315       0.032463       0.000402
 2133   0.049335    -9.657068     -9.132329       0.032463       0.000402
 2134   0.049331    -9.665945     -9.140365       0.032463       0.000402
 2135   0.049325    -9.674111     -9.147432       0.032463       0.000402
 2136   0.049316    -9.681943     -9.154153       0.032463       0.000402
 2137   0.049310    -9.689954     -9.161239       0.032463       0.000402
 2138   0.049300    -9.698443     -9.169060       0.032463       0.000402
 2139   0.049291    -9.707481     -9.177663       0.032463       0.000402
 2140   0.049281    -9.716968     -9.186882       0.032463       0.000402
 2141   0.049274    -9.726770     -9.196521       0.032463       0.000402
 2142   0.049267    -9.736813     -9.206477       0.032463       0.000402
 2143   0.049263    -9.747089     -9.216734       0.032463       0.000402
 2144   0.049335    -9.757599     -9.227288       0.032463       0.000402
 2145   0.049376    -9.768313     -9.238091       0.032463       0.000402
 2146   0.049454    -9.779163     -9.249041       0.032463       0.000402
 2147   0.049468    -9.790068     -9.260027       0.032463       0.000402

---------------------- Local Time Stepping Summary ----------------------
MG level: 0 -> Min. DT: 0.000490626. Max. DT: 3.63396. CFL: 10.
MG level: 1 -> Min. DT: 0.00077711. Max. DT: 5.55366. CFL: 8.11871.
MG level: 2 -> Min. DT: 0.00104437. Max. DT: 7.42509. CFL: 6.5465.
-------------------------------------------------------------------------

----------------------- Residual Evolution Summary ----------------------
log10[Maximum residual]: -8.48027.
Maximum residual point 407, located at (0.551909, 0.0576863).
-------------------------------------------------------------------------

 Iter    Time(s)     Res[Rho]     Res[RhoE]      CL(Total)      CD(Total)
 2148   0.049475    -9.800968     -9.270970       0.032463       0.000402
 2149   0.049475    -9.811848     -9.281857       0.032463       0.000402
 2150   0.049466    -9.822744     -9.292740       0.032463       0.000402
 2151   0.049462    -9.833729     -9.303717       0.032463       0.000402
 2152   0.049457    -9.844897     -9.314913       0.032463       0.000402
 2153   0.049450    -9.856352     -9.326462       0.032463       0.000402
 2154   0.049444    -9.868202     -9.338502       0.032463       0.000402
 2155   0.049439    -9.880558     -9.351172       0.032463       0.000402
 2156   0.049429    -9.893529     -9.364612       0.032463       0.000402
 2157   0.049422    -9.907214     -9.378949       0.032463       0.000402
 2158   0.049415    -9.921704     -9.394293       0.032463       0.000402
 2159   0.049413    -9.937064     -9.410727       0.032463       0.000402
 2160   0.049409    -9.953334     -9.428297       0.032463       0.000402
 2161   0.049400    -9.970529     -9.447011       0.032463       0.000402
 2162   0.049393    -9.988627     -9.466836       0.032463       0.000402
 2163   0.049396   -10.007581     -9.487696       0.032463       0.000402

-------------------------- File Output Summary --------------------------
Writing comma-separated values (CSV) surface files.
Merging connectivities in the Master node.
Merging coordinates in the Master node.
Merging solution in the Master node.
Writing SU2 native restart file.
Writing Paraview ASCII volume solution file.
Writing Paraview ASCII surface solution file.
Writing the forces breakdown file.
-------------------------------------------------------------------------

History file, closed.

------------------------- Solver Postprocessing -------------------------
Deleted CNumerics container.
Deleted CIntegration container.
Deleted CSolver container.
Deleted CIteration container.
Deleted CInterpolator container.
Deleted CTransfer container.
Deleted CGeometry container.
Deleted CFreeFormDefBox class.
Deleted CSurfaceMovement class.
Deleted CVolumetricMovement class.
Deleted CConfig container.
Deleted COutput class.
-------------------------------------------------------------------------

Completed in 10.754881 seconds on 1 core.

------------------------- Exit Success (SU2_CFD) ------------------------

