
-------------------------------------------------------------------------
|    ___ _   _ ___                                                      |
|   / __| | | |_  )   Release 5.0.0  "Raven"                            |
|   \__ \ |_| |/ /                                                      |
|   |___/\___//___|   Suite (Mesh Deformation Code)                     |
|                                                                       |
-------------------------------------------------------------------------
| SU2 Original Developers: Dr. Francisco D. Palacios.                   |
|                          Dr. Thomas D. Economon.                      |
-------------------------------------------------------------------------
| SU2 Developers:                                                       |
| - Prof. Juan J. Alonso's group at Stanford University.                |
| - Prof. Piero Colonna's group at Delft University of Technology.      |
| - Prof. Nicolas R. Gauger's group at Kaiserslautern U. of Technology. |
| - Prof. Alberto Guardone's group at Polytechnic University of Milan.  |
| - Prof. Rafael Palacios' group at Imperial College London.            |
| - Prof. Edwin van der Weide's group at the University of Twente.      |
| - Prof. Vincent Terrapon's group at the University of Liege.          |
-------------------------------------------------------------------------
| Copyright (C) 2012-2017 SU2, the open-source CFD code.                |
|                                                                       |
| SU2 is free software; you can redistribute it and/or                  |
| modify it under the terms of the GNU Lesser General Public            |
| License as published by the Free Software Foundation; either          |
| version 2.1 of the License, or (at your option) any later version.    |
|                                                                       |
| SU2 is distributed in the hope that it will be useful,                |
| but WITHOUT ANY WARRANTY; without even the implied warranty of        |
| MERCHANTABILITY or FITNESS FOR A PARTICULAR PURPOSE. See the GNU      |
| Lesser General Public License for more details.                       |
|                                                                       |
| You should have received a copy of the GNU Lesser General Public      |
| License along with SU2. If not, see <http://www.gnu.org/licenses/>.   |
-------------------------------------------------------------------------

------------------------ Physical Case Definition -----------------------
Input mesh file name: mesh.su2

---------------------- Grid deformation parameters ----------------------
Grid deformation using a linear elasticity method.
Design variables definition (markers <-> value <-> param):
Hicks Henne <-> airfoil <-> 8.65771e-05 <-> ( 0, 0.05 )
Hicks Henne <-> airfoil <-> -1.17411e-05 <-> ( 0, 0.1 )
Hicks Henne <-> airfoil <-> -5.78513e-05 <-> ( 0, 0.15 )
Hicks Henne <-> airfoil <-> -6.79842e-05 <-> ( 0, 0.2 )
Hicks Henne <-> airfoil <-> -5.30658e-05 <-> ( 0, 0.25 )
Hicks Henne <-> airfoil <-> -2.34907e-05 <-> ( 0, 0.3 )
Hicks Henne <-> airfoil <-> 1.04723e-05 <-> ( 0, 0.35 )
Hicks Henne <-> airfoil <-> 4.00471e-05 <-> ( 0, 0.4 )
Hicks Henne <-> airfoil <-> 5.97324e-05 <-> ( 0, 0.45 )
Hicks Henne <-> airfoil <-> 6.83205e-05 <-> ( 0, 0.5 )
Hicks Henne <-> airfoil <-> 6.83254e-05 <-> ( 0, 0.55 )
Hicks Henne <-> airfoil <-> 6.37979e-05 <-> ( 0, 0.6 )
Hicks Henne <-> airfoil <-> 5.75534e-05 <-> ( 0, 0.65 )
Hicks Henne <-> airfoil <-> 4.9562e-05 <-> ( 0, 0.7 )
Hicks Henne <-> airfoil <-> 3.85074e-05 <-> ( 0, 0.75 )
Hicks Henne <-> airfoil <-> 2.91565e-05 <-> ( 0, 0.8 )
Hicks Henne <-> airfoil <-> 4.45765e-05 <-> ( 0, 0.85 )
Hicks Henne <-> airfoil <-> 8.7116e-05 <-> ( 0, 0.9 )
Hicks Henne <-> airfoil <-> -1.70587e-05 <-> ( 0, 0.95 )
Hicks Henne <-> airfoil <-> 3.82715e-05 <-> ( 1, 0.05 )
Hicks Henne <-> airfoil <-> -0.000207576 <-> ( 1, 0.1 )
Hicks Henne <-> airfoil <-> -0.000369787 <-> ( 1, 0.15 )
Hicks Henne <-> airfoil <-> -0.000446833 <-> ( 1, 0.2 )
Hicks Henne <-> airfoil <-> -0.000433038 <-> ( 1, 0.25 )
Hicks Henne <-> airfoil <-> -0.000335851 <-> ( 1, 0.3 )
Hicks Henne <-> airfoil <-> -0.000180376 <-> ( 1, 0.35 )
Hicks Henne <-> airfoil <-> -6.44653e-06 <-> ( 1, 0.4 )
Hicks Henne <-> airfoil <-> 0.000140628 <-> ( 1, 0.45 )
Hicks Henne <-> airfoil <-> 0.000223612 <-> ( 1, 0.5 )
Hicks Henne <-> airfoil <-> 0.000227022 <-> ( 1, 0.55 )
Hicks Henne <-> airfoil <-> 0.000164704 <-> ( 1, 0.6 )
Hicks Henne <-> airfoil <-> 7.48059e-05 <-> ( 1, 0.65 )
Hicks Henne <-> airfoil <-> 4.56731e-08 <-> ( 1, 0.7 )
Hicks Henne <-> airfoil <-> -3.78729e-05 <-> ( 1, 0.75 )
Hicks Henne <-> airfoil <-> -4.89523e-05 <-> ( 1, 0.8 )
Hicks Henne <-> airfoil <-> -5.63576e-05 <-> ( 1, 0.85 )
Hicks Henne <-> airfoil <-> -6.58858e-05 <-> ( 1, 0.9 )
Hicks Henne <-> airfoil <-> -4.57597e-05 <-> ( 1, 0.95 )

-------------------------- Output Information ---------------------------
Output mesh file name: mesh_deform.su2. 
No file for visualizing the deformation.
Cell stiffness scaled by inverse of the cell volume.

------------------- Config File Boundary Information --------------------
Euler wall boundary marker(s): airfoil.
Far-field boundary marker(s): farfield.

---------------------- Read Grid File Information -----------------------
Two dimensional problem.
5233 points.
2 surface markers.
200 boundary elements in index 0 (Marker = airfoil).
50 boundary elements in index 1 (Marker = farfield).
10216 triangles.

----------------------- Preprocessing computations ----------------------
Setting local point connectivity.
Checking the numerical grid orientation.
Identify edges and vertices.
Computing centers of gravity.
Setting the bound control volume structure.

------------------------- Surface grid deformation ----------------------
Performing the deformation of the surface grid.

----------------------- Volumetric grid deformation ---------------------
Performing the deformation of the volumetric grid.
Computing volumes of the grid elements.
Min. volume: 4.11303e-08, max. volume: 4.13691.

# LU_SGS preconditioner.

# FGMRES residual history
# Residual tolerance target = 4.11303e-11
# Initial residual norm     = 0.000368851
     0     1
     50     0.00021503
     100     3.08533e-09
# FGMRES final (true) residual:
# Iteration = 116: |res|/|res0| = 4.0038e-11.

Computing volumes of the grid elements.
Non-linear iter.: 1/1. Linear iter.: 116. Min. area: 4.11201e-08. Error: 1.47681e-14.

----------------------- Write deformed grid files -----------------------
Merging grid connectivity.
Merging grid coordinates.
Writing .su2 file.
Adding any FFD information to the SU2 file.

Completed in 0.397488 seconds on 1 core.

------------------------- Exit Success (SU2_DEF) ------------------------

