
-------------------------------------------------------------------------
|    ___ _   _ ___                                                      |
|   / __| | | |_  )   Release 5.0.0  "Raven"                            |
|   \__ \ |_| |/ /                                                      |
|   |___/\___//___|   Suite (Computational Fluid Dynamics Code)         |
|                                                                       |
-------------------------------------------------------------------------
| SU2 Original Developers: Dr. Francisco D. Palacios.                   |
|                          Dr. Thomas D. Economon.                      |
-------------------------------------------------------------------------
| SU2 Developers:                                                       |
| - Prof. Juan J. Alonso's group at Stanford University.                |
| - Prof. Piero Colonna's group at Delft University of Technology.      |
| - Prof. Nicolas R. Gauger's group at Kaiserslautern U. of Technology. |
| - Prof. Alberto Guardone's group at Polytechnic University of Milan.  |
| - Prof. Rafael Palacios' group at Imperial College London.            |
| - Prof. Edwin van der Weide's group at the University of Twente.      |
| - Prof. Vincent Terrapon's group at the University of Liege.          |
-------------------------------------------------------------------------
| Copyright (C) 2012-2017 SU2, the open-source CFD code.                |
|                                                                       |
| SU2 is free software; you can redistribute it and/or                  |
| modify it under the terms of the GNU Lesser General Public            |
| License as published by the Free Software Foundation; either          |
| version 2.1 of the License, or (at your option) any later version.    |
|                                                                       |
| SU2 is distributed in the hope that it will be useful,                |
| but WITHOUT ANY WARRANTY; without even the implied warranty of        |
| MERCHANTABILITY or FITNESS FOR A PARTICULAR PURPOSE. See the GNU      |
| Lesser General Public License for more details.                       |
|                                                                       |
| You should have received a copy of the GNU Lesser General Public      |
| License along with SU2. If not, see <http://www.gnu.org/licenses/>.   |
-------------------------------------------------------------------------

------------------------ Physical Case Definition -----------------------
Compressible Euler equations.
Mach number: 0.8.
Angle of attack (AoA): 1.25 deg, and angle of sideslip (AoS): 0 deg.
No restart solution, use the values at infinity (freestream).
Non-Dimensional simulation (P=1.0, Rho=1.0, T=1.0 at the farfield).
The reference length/area (force coefficient) is 1.
The reference length (moment computation) is 1.
Reference origin (moment computation) is (0.25, 0, 0).
Surface(s) where the force coefficients are evaluated: airfoil.
Surface(s) plotted in the output file: airfoil.
Surface(s) affected by the design variables: airfoil.
Input mesh file name: mesh.su2

---------------------- Space Numerical Integration ----------------------
Jameson-Schmidt-Turkel scheme for the flow inviscid terms.
JST viscous coefficients (1st, 2nd & 4th): 0.15, 0.5, 0.02.
The method includes a grid stretching correction (p = 0.3).
Second order integration.
Gradient computation using Green-Gauss theorem.

---------------------- Time Numerical Integration -----------------------
Local time stepping (steady state simulation).
Euler implicit method for the flow equations.
V Multigrid Cycle, with 2 multigrid levels.
Damping factor for the residual restriction: 1.
Damping factor for the correction prolongation: 1.
No CFL adaptation.
Multigrid Level:                       0     1     2
Courant-Friedrichs-Lewy number:       10
MG PreSmooth coefficients:             1     2     3
MG PostSmooth coefficients:            0     0     0
MG CorrecSmooth coefficients:          0     0     0

------------------------- Convergence Criteria --------------------------
Maximum number of iterations: 1000.
Reduce the density residual 6 orders of magnitude.
The minimum bound for the density residual is 10^(-10).
Start convergence criteria at iteration 10.

-------------------------- Output Information ---------------------------
Writing a flow solution every 250 iterations.
Writing the convergence history every 1 iterations.
The output file format is Paraview ASCII (.vtk).
Convergence history file name: history_direct.
Forces breakdown file name: forces_breakdown.dat.
Surface flow coefficients file name: surface_flow.
Flow variables file name: flow.
Restart flow file name: restart_flow.dat.

------------------- Config File Boundary Information --------------------
Euler wall boundary marker(s): airfoil.
Far-field boundary marker(s): farfield.

---------------------- Read Grid File Information -----------------------
Two dimensional problem.
5233 points.
2 surface markers.
200 boundary elements in index 0 (Marker = airfoil).
50 boundary elements in index 1 (Marker = farfield).
10216 triangles.

------------------------- Geometry Preprocessing ------------------------
Setting point connectivity.
Renumbering points (Reverse Cuthill McKee Ordering).
Recomputing point connectivity.
Setting element connectivity.
Checking the numerical grid orientation.
Identifying edges and vertices.
Computing centers of gravity.
Setting the control volume structure.
Area of the computational grid: 1.25e+03.
Searching for the closest normal neighbors to the surfaces.
Compute the surface curvature.
Max K: 7.84e+03. Mean K: 37. Standard deviation K: 495.
Checking for periodicity.
Setting the multigrid structure.
MG level: 0 -> CVs: 5233. Agglomeration rate 1/1.00. CFL 10.
MG level: 1 -> CVs: 1533. Agglomeration rate 1/3.41. CFL 8.12.
MG level: 2 -> CVs: 443. Agglomeration rate 1/3.46. CFL 6.55.
Computing wall distances.
Wetted area = 2.03 m.
Area projection in the x-plane = 0.092 m, y-plane = 1 m.

------------------------- Driver information --------------------------
A Fluid driver has been instantiated.

------------------------ Iteration Preprocessing ------------------------
Zone 1: Euler/Navier-Stokes/RANS flow iteration.

------------------------- Solver Preprocessing --------------------------
Inviscid flow: Computing density based on free-stream
temperature and pressure using the ideal gas law.
Force coefficients computed using free-stream values.
-- Input conditions:
Fluid Model: STANDARD_AIR 
Specific gas constant: 287.058 N.m/kg.K.
Specific gas constant (non-dim): 1
Specific Heat Ratio: 1.4
Free-stream static pressure: 101325 Pa.
Free-stream total pressure: 154454 Pa.
Free-stream temperature: 288.15 K.
Free-stream density: 1.22498 kg/m^3.
Free-stream velocity: (272.173, 5.93883) m/s. Magnitude: 272.238 m/s (529.186 KTS).
Free-stream total energy per unit mass: 243846 m^2/s^2.
-- Reference values:
Reference specific gas constant: 287.058 N.m/kg.K.
Reference pressure: 101325 Pa.
Reference temperature: 288.15 K.
Reference density: 1.22498 kg/m^3.
Reference velocity: 287.603 m/s.
Reference energy per unit mass: 82715.8 m^2/s^2.
-- Resulting non-dimensional state:
Mach number (non-dim): 0.8
Specific gas constant (non-dim): 1
Free-stream temperature (non-dim): 1
Free-stream pressure (non-dim): 1
Free-stream density (non-dim): 1
Free-stream velocity (non-dim): (0.946348, 0.0206494). Magnitude: 0.946573
Free-stream total energy per unit mass (non-dim): 2.948

Initialize Jacobian structure (Euler). MG level: 0.
Initialize Jacobian structure (Euler). MG level: 1.
Initialize Jacobian structure (Euler). MG level: 2.

----------------- Integration and Numerics Preprocessing ----------------
Integration Preprocessing.
Numerics Preprocessing.

------------------------------ Begin Solver -----------------------------

---------------------- Local Time Stepping Summary ----------------------
MG level: 0 -> Min. DT: 0.000444866. Max. DT: 3.63321. CFL: 10.
MG level: 1 -> Min. DT: 0.000717335. Max. DT: 5.55359. CFL: 8.11871.
MG level: 2 -> Min. DT: 0.00101987. Max. DT: 7.42488. CFL: 6.5465.
-------------------------------------------------------------------------

----------------------- Residual Evolution Summary ----------------------
log10[Maximum residual]: -2.70235.
Maximum residual point 97, located at (0.00056, -0.00333334).
-------------------------------------------------------------------------

 Iter    Time(s)     Res[Rho]     Res[RhoE]      CL(Total)      CD(Total)
    0   0.052409    -3.677924     -3.081547       0.094720       0.113354
    1   0.051799    -3.762924     -3.142495       0.071514       0.070189
    2   0.059205    -3.806569     -3.198772       0.083770       0.060442
    3   0.059705    -3.780681     -3.176538       0.089283       0.054361
    4   0.060444    -3.726214     -3.120939       0.088462       0.046056
    5   0.058892    -3.685343     -3.080397       0.088259       0.038475
    6   0.057927    -3.652127     -3.048775       0.087047       0.032203
    7   0.056708    -3.632760     -3.030317       0.084502       0.027140
    8   0.055720    -3.626444     -3.024110       0.081179       0.023138
    9   0.054919    -3.634331     -3.032522       0.077123       0.021849
   10   0.054325    -3.686747     -3.092588       0.074914       0.015877
   11   0.053785    -3.708805     -3.114341       0.072453       0.015693
   12   0.053281    -3.722660     -3.124688       0.070384       0.017056
   13   0.052860    -3.731315     -3.129471       0.069765       0.014284
   14   0.052488    -3.759624     -3.158745       0.069212       0.011157
   15   0.052166    -3.784719     -3.183961       0.068001       0.011468
   16   0.051869    -3.815324     -3.214489       0.066719       0.011266
   17   0.051634    -3.849085     -3.246419       0.066092       0.010613
   18   0.051421    -3.885342     -3.279143       0.065934       0.009848
   19   0.051207    -3.927090     -3.316674       0.065828       0.009252
   20   0.051181    -3.975202     -3.360746       0.065821       0.009317
   21   0.051088    -4.044274     -3.428592       0.066173       0.008876
   22   0.050934    -4.130695     -3.518313       0.066416       0.006880
   23   0.050788    -4.204651     -3.596157       0.065345       0.005193
   24   0.050649    -4.230552     -3.618250       0.063828       0.006273
   25   0.050573    -4.239263     -3.621350       0.062911       0.006066
   26   0.050629    -4.260070     -3.642187       0.062590       0.005522
   27   0.050570    -4.297531     -3.685483       0.062309       0.005125
   28   0.050459    -4.342486     -3.739208       0.061944       0.004711
   29   0.050370    -4.386772     -3.785745       0.061376       0.003882
   30   0.050281    -4.423913     -3.832150       0.060574       0.003788
   31   0.050191    -4.466470     -3.877370       0.059864       0.003378
   32   0.050102    -4.481051     -3.888091       0.059268       0.002945
   33   0.050018    -4.489280     -3.893232       0.058726       0.002584
   34   0.049943    -4.498452     -3.899550       0.058241       0.002265
   35   0.049871    -4.508009     -3.905612       0.057822       0.001981
   36   0.049794    -4.519279     -3.912816       0.057466       0.001721
   37   0.049730    -4.536287     -3.925484       0.057150       0.001477
   38   0.049665    -4.561838     -3.946974       0.056846       0.001252
   39   0.049609    -4.595517     -3.977744       0.056544       0.001059

---------------------- Local Time Stepping Summary ----------------------
MG level: 0 -> Min. DT: 0.000494229. Max. DT: 3.63326. CFL: 10.
MG level: 1 -> Min. DT: 0.000786656. Max. DT: 5.55287. CFL: 8.11871.
MG level: 2 -> Min. DT: 0.00105958. Max. DT: 7.42426. CFL: 6.5465.
-------------------------------------------------------------------------

----------------------- Residual Evolution Summary ----------------------
log10[Maximum residual]: -3.52142.
Maximum residual point 5188, located at (12.1372, 8.8175).
-------------------------------------------------------------------------

 Iter    Time(s)     Res[Rho]     Res[RhoE]      CL(Total)      CD(Total)
   40   0.049549    -4.633233     -4.014173       0.056248       0.000899
   41   0.049520    -4.674377     -4.056261       0.055965       0.000777
   42   0.049467    -4.715432     -4.100853       0.055691       0.000691
   43   0.049429    -4.755805     -4.147813       0.055422       0.000631
   44   0.049382    -4.792811     -4.193374       0.055141       0.000584
   45   0.049346    -4.828605     -4.237855       0.054829       0.000582
   46   0.049310    -4.875483     -4.296333       0.054493       0.000616
   47   0.049263    -4.936508     -4.373854       0.054191       0.000626
   48   0.049216    -4.958598     -4.396221       0.053875       0.000632
   49   0.049177    -4.958429     -4.389586       0.053497       0.000661
   50   0.049136    -4.978835     -4.412910       0.053124       0.000675
   51   0.049118    -4.993687     -4.429554       0.052739       0.000689
   52   0.049081    -5.005360     -4.442095       0.052346       0.000700
   53   0.049064    -5.016190     -4.454272       0.051957       0.000706
   54   0.049049    -5.025567     -4.464896       0.051573       0.000709
   55   0.049018    -5.034853     -4.475365       0.051198       0.000710
   56   0.048984    -5.045120     -4.486946       0.050836       0.000709
   57   0.048958    -5.056562     -4.499850       0.050488       0.000707
   58   0.048926    -5.069527     -4.514512       0.050159       0.000704
   59   0.048893    -5.083781     -4.530587       0.049851       0.000701
   60   0.048870    -5.099466     -4.548165       0.049565       0.000699
   61   0.048848    -5.116425     -4.567006       0.049305       0.000697
   62   0.048839    -5.133808     -4.585985       0.049071       0.000696
   63   0.048809    -5.148249     -4.600884       0.048867       0.000695
   64   0.048785    -5.156550     -4.608160       0.048690       0.000693
   65   0.048767    -5.162446     -4.613197       0.048541       0.000692
   66   0.048754    -5.163055     -4.611913       0.048412       0.000693
   67   0.048742    -5.166629     -4.615257       0.048307       0.000693
   68   0.048776    -5.164597     -4.611616       0.048214       0.000694
   69   0.048780    -5.169258     -4.616965       0.048135       0.000696
   70   0.048797    -5.171718     -4.619287       0.048061       0.000697
   71   0.048920    -5.176816     -4.624461       0.047993       0.000697
   72   0.048905    -5.182623     -4.629880       0.047925       0.000698
   73   0.048888    -5.189218     -4.635678       0.047857       0.000698
   74   0.048864    -5.197302     -4.642943       0.047787       0.000697
   75   0.048840    -5.207684     -4.652844       0.047715       0.000696
   76   0.048844    -5.220797     -4.666012       0.047640       0.000695
   77   0.048854    -5.237015     -4.683028       0.047562       0.000694
   78   0.048838    -5.256775     -4.704505       0.047482       0.000693
   79   0.048815    -5.280087     -4.730618       0.047399       0.000692

---------------------- Local Time Stepping Summary ----------------------
MG level: 0 -> Min. DT: 0.000493231. Max. DT: 3.63327. CFL: 10.
MG level: 1 -> Min. DT: 0.000783197. Max. DT: 5.55298. CFL: 8.11871.
MG level: 2 -> Min. DT: 0.00105252. Max. DT: 7.42432. CFL: 6.5465.
-------------------------------------------------------------------------

----------------------- Residual Evolution Summary ----------------------
log10[Maximum residual]: -4.16931.
Maximum residual point 377, located at (0.457073, 0.0605516).
-------------------------------------------------------------------------

 Iter    Time(s)     Res[Rho]     Res[RhoE]      CL(Total)      CD(Total)
   80   0.048792    -5.306588     -4.760966       0.047315       0.000691
   81   0.048774    -5.335496     -4.794516       0.047230       0.000689
   82   0.048757    -5.365590     -4.829587       0.047143       0.000688
   83   0.048747    -5.395699     -4.864502       0.047057       0.000687
   84   0.048725    -5.424917     -4.897916       0.046970       0.000686
   85   0.048711    -5.452672     -4.928930       0.046885       0.000685
   86   0.048695    -5.478463     -4.956800       0.046803       0.000684
   87   0.048696    -5.502106     -4.981335       0.046722       0.000683
   88   0.048694    -5.523484     -5.002510       0.046646       0.000682
   89   0.048860    -5.542269     -5.020048       0.046572       0.000680
   90   0.048848    -5.558017     -5.033660       0.046503       0.000679
   91   0.048835    -5.570747     -5.043727       0.046438       0.000678
   92   0.049100    -5.581269     -5.051563       0.046377       0.000676
   93   0.049097    -5.590142     -5.057907       0.046319       0.000675
   94   0.049084    -5.598087     -5.063549       0.046264       0.000674
   95   0.049066    -5.605665     -5.069036       0.046212       0.000673
   96   0.049048    -5.613510     -5.075031       0.046163       0.000672
   97   0.049029    -5.621918     -5.081777       0.046115       0.000672
   98   0.049008    -5.631055     -5.089402       0.046070       0.000671
   99   0.048990    -5.641090     -5.098066       0.046027       0.000671
  100   0.048973    -5.652132     -5.107890       0.045985       0.000671
  101   0.048953    -5.664240     -5.118975       0.045944       0.000672
  102   0.048933    -5.677483     -5.131440       0.045905       0.000672
  103   0.048988    -5.691946     -5.145425       0.045867       0.000673
  104   0.049059    -5.707637     -5.160962       0.045831       0.000673
  105   0.049115    -5.724519     -5.178013       0.045795       0.000673
  106   0.049220    -5.742481     -5.196440       0.045761       0.000674
  107   0.049240    -5.761269     -5.215923       0.045729       0.000674
  108   0.049311    -5.780466     -5.235889       0.045698       0.000675
  109   0.049312    -5.799653     -5.255770       0.045668       0.000675
  110   0.049301    -5.818551     -5.275192       0.045641       0.000675
  111   0.049285    -5.836824     -5.293738       0.045615       0.000675
  112   0.049272    -5.854303     -5.311199       0.045591       0.000675
  113   0.049262    -5.870806     -5.327349       0.045569       0.000675
  114   0.049244    -5.886224     -5.342094       0.045549       0.000674
  115   0.049225    -5.900564     -5.355514       0.045530       0.000674
  116   0.049212    -5.913967     -5.367842       0.045514       0.000674
  117   0.049201    -5.926696     -5.379430       0.045500       0.000673
  118   0.049182    -5.939026     -5.390647       0.045487       0.000673
  119   0.049168    -5.951212     -5.401823       0.045476       0.000673

---------------------- Local Time Stepping Summary ----------------------
MG level: 0 -> Min. DT: 0.000493296. Max. DT: 3.63327. CFL: 10.
MG level: 1 -> Min. DT: 0.000782201. Max. DT: 5.553. CFL: 8.11871.
MG level: 2 -> Min. DT: 0.00105152. Max. DT: 7.42433. CFL: 6.5465.
-------------------------------------------------------------------------

----------------------- Residual Evolution Summary ----------------------
log10[Maximum residual]: -4.80886.
Maximum residual point 617, located at (0.560818, 0.0727962).
-------------------------------------------------------------------------

 Iter    Time(s)     Res[Rho]     Res[RhoE]      CL(Total)      CD(Total)
  120   0.049153    -5.963521     -5.413293       0.045466       0.000673
  121   0.049138    -5.976239     -5.425400       0.045458       0.000672
  122   0.049121    -5.989609     -5.438424       0.045450       0.000672
  123   0.049118    -6.003805     -5.452558       0.045444       0.000672
  124   0.049104    -6.018947     -5.467919       0.045439       0.000672
  125   0.049090    -6.035157     -5.484623       0.045434       0.000672
  126   0.049073    -6.052480     -5.502711       0.045430       0.000672
  127   0.049066    -6.071133     -5.522444       0.045427       0.000672
  128   0.049056    -6.091239     -5.543965       0.045423       0.000672
  129   0.049043    -6.112958     -5.567485       0.045421       0.000672
  130   0.049029    -6.136446     -5.593198       0.045418       0.000672
  131   0.049013    -6.161844     -5.621289       0.045416       0.000672
  132   0.048997    -6.189342     -5.651979       0.045413       0.000672
  133   0.048990    -6.218945     -5.685292       0.045411       0.000672
  134   0.048990    -6.250555     -5.721097       0.045409       0.000673
  135   0.048980    -6.283848     -5.758915       0.045407       0.000673
  136   0.048970    -6.317973     -5.797477       0.045405       0.000673
  137   0.048964    -6.351536     -5.834714       0.045403       0.000673
  138   0.048953    -6.383200     -5.868756       0.045401       0.000673
  139   0.048939    -6.412656     -5.899405       0.045399       0.000673
  140   0.048927    -6.440740     -5.928059       0.045397       0.000673
  141   0.048918    -6.467814     -5.955348       0.045395       0.000672
  142   0.048906    -6.493037     -5.980112       0.045393       0.000672
  143   0.048893    -6.515447     -6.001108       0.045391       0.000672
  144   0.048893    -6.535408     -6.019143       0.045389       0.000672
  145   0.048880    -6.554382     -6.036432       0.045387       0.000672
  146   0.048870    -6.573135     -6.053911       0.045385       0.000672
  147   0.048860    -6.590879     -6.070263       0.045383       0.000672
  148   0.048855    -6.606511     -6.083881       0.045382       0.000672
  149   0.048854    -6.619960     -6.094780       0.045380       0.000672
  150   0.048860    -6.632262     -6.104509       0.045378       0.000672
  151   0.048852    -6.644309     -6.114236       0.045377       0.000672
  152   0.048840    -6.656299     -6.124114       0.045375       0.000672
  153   0.048828    -6.668237     -6.134064       0.045374       0.000672
  154   0.048815    -6.680206     -6.144159       0.045372       0.000672
  155   0.048814    -6.692379     -6.154612       0.045371       0.000672
  156   0.048810    -6.704939     -6.165641       0.045370       0.000672
  157   0.048802    -6.718057     -6.177394       0.045369       0.000672
  158   0.048799    -6.731671     -6.189752       0.045369       0.000672
  159   0.048789    -6.745662     -6.202547       0.045369       0.000672

---------------------- Local Time Stepping Summary ----------------------
MG level: 0 -> Min. DT: 0.000493252. Max. DT: 3.63327. CFL: 10.
MG level: 1 -> Min. DT: 0.000782083. Max. DT: 5.553. CFL: 8.11871.
MG level: 2 -> Min. DT: 0.00105141. Max. DT: 7.42433. CFL: 6.5465.
-------------------------------------------------------------------------

----------------------- Residual Evolution Summary ----------------------
log10[Maximum residual]: -5.45867.
Maximum residual point 261, located at (0.583389, 0.0555787).
-------------------------------------------------------------------------

 Iter    Time(s)     Res[Rho]     Res[RhoE]      CL(Total)      CD(Total)
  160   0.048777    -6.759883     -6.215583       0.045368       0.000672
  161   0.048770    -6.774164     -6.228641       0.045368       0.000672
  162   0.048763    -6.788356     -6.241534       0.045369       0.000672
  163   0.048757    -6.802322     -6.254094       0.045369       0.000672
  164   0.048748    -6.815987     -6.266240       0.045370       0.000672
  165   0.048745    -6.829316     -6.277946       0.045371       0.000672
  166   0.048735    -6.842319     -6.289243       0.045372       0.000672
  167   0.048726    -6.855075     -6.300234       0.045373       0.000672
  168   0.048719    -6.867684     -6.311048       0.045374       0.000672
  169   0.048713    -6.880261     -6.321832       0.045376       0.000672
  170   0.048712    -6.892923     -6.332746       0.045378       0.000672
  171   0.048709    -6.905805     -6.343956       0.045379       0.000672
  172   0.048702    -6.919046     -6.355632       0.045381       0.000672
  173   0.048693    -6.932806     -6.367974       0.045383       0.000672
  174   0.048688    -6.947228     -6.381162       0.045385       0.000672
  175   0.048687    -6.962463     -6.395381       0.045386       0.000672
  176   0.048681    -6.978656     -6.410802       0.045388       0.000672
  177   0.048679    -6.995885     -6.427541       0.045390       0.000672
  178   0.048671    -7.014316     -6.445802       0.045392       0.000673
  179   0.048670    -7.034088     -6.465757       0.045394       0.000673
  180   0.048661    -7.055306     -6.487554       0.045396       0.000673
  181   0.048656    -7.078075     -6.511338       0.045397       0.000673
  182   0.048654    -7.102435     -6.537183       0.045399       0.000673
  183   0.048652    -7.128375     -6.565102       0.045401       0.000673
  184   0.048645    -7.155854     -6.595068       0.045403       0.000673
  185   0.048637    -7.184798     -6.627017       0.045404       0.000673
  186   0.048635    -7.215123     -6.660859       0.045406       0.000673
  187   0.048625    -7.246675     -6.696406       0.045407       0.000673
  188   0.048618    -7.279250     -6.733382       0.045409       0.000673
  189   0.048620    -7.312611     -6.771442       0.045410       0.000673
  190   0.048616    -7.346485     -6.810162       0.045412       0.000673
  191   0.048613    -7.380531     -6.849016       0.045413       0.000673
  192   0.048622    -7.414355     -6.887390       0.045415       0.000672
  193   0.048614    -7.447518     -6.924621       0.045416       0.000672
  194   0.048610    -7.479582     -6.960094       0.045418       0.000672
  195   0.048602    -7.510133     -6.993275       0.045419       0.000672
  196   0.048596    -7.538619     -7.023478       0.045420       0.000672
  197   0.048589    -7.563597     -7.048731       0.045421       0.000672
  198   0.048590    -7.579615     -7.061392       0.045423       0.000672
  199   0.048582    -7.570111     -7.040364       0.045424       0.000672

---------------------- Local Time Stepping Summary ----------------------
MG level: 0 -> Min. DT: 0.00049323. Max. DT: 3.63327. CFL: 10.
MG level: 1 -> Min. DT: 0.000782073. Max. DT: 5.553. CFL: 8.11871.
MG level: 2 -> Min. DT: 0.00105141. Max. DT: 7.42433. CFL: 6.5465.
-------------------------------------------------------------------------

----------------------- Residual Evolution Summary ----------------------
log10[Maximum residual]: -6.29756.
Maximum residual point 261, located at (0.583389, 0.0555787).
-------------------------------------------------------------------------

 Iter    Time(s)     Res[Rho]     Res[RhoE]      CL(Total)      CD(Total)
  200   0.048575    -7.565877     -7.028039       0.045425       0.000672
  201   0.048567    -7.566405     -7.024720       0.045426       0.000672
  202   0.048561    -7.580175     -7.042481       0.045427       0.000672
  203   0.048553    -7.603783     -7.072964       0.045428       0.000672
  204   0.048545    -7.629303     -7.103691       0.045428       0.000672
  205   0.048539    -7.645889     -7.119074       0.045429       0.000672
  206   0.048534    -7.660374     -7.130976       0.045430       0.000672
  207   0.048568    -7.675862     -7.144826       0.045431       0.000672
  208   0.048611    -7.692195     -7.160466       0.045431       0.000672
  209   0.048665    -7.708919     -7.177097       0.045432       0.000672
  210   0.048701    -7.725286     -7.193461       0.045432       0.000672
  211   0.048714    -7.743404     -7.211892       0.045433       0.000672
  212   0.048720    -7.765956     -7.235738       0.045433       0.000672
  213   0.048713    -7.791550     -7.263241       0.045433       0.000672
  214   0.048704    -7.816846     -7.289782       0.045434       0.000672
  215   0.048699    -7.841179     -7.314538       0.045434       0.000672
  216   0.048736    -7.865454     -7.339060       0.045434       0.000672
  217   0.048735    -7.890555     -7.364802       0.045434       0.000672
  218   0.048735    -7.917925     -7.393804       0.045435       0.000672
  219   0.048730    -7.948871     -7.427814       0.045435       0.000672
  220   0.048725    -7.984149     -7.467807       0.045435       0.000672
  221   0.048718    -8.024043     -7.514214       0.045435       0.000672
  222   0.048712    -8.067692     -7.566311       0.045435       0.000672
  223   0.048708    -8.102272     -7.602395       0.045435       0.000672
  224   0.048705    -8.123900     -7.619677       0.045436       0.000672
  225   0.048700    -8.131138     -7.618458       0.045436       0.000672
  226   0.048693    -8.138642     -7.619599       0.045436       0.000672
  227   0.048689    -8.144231     -7.619856       0.045436       0.000672
  228   0.048684    -8.152246     -7.624464       0.045436       0.000672
  229   0.048680    -8.161583     -7.631167       0.045436       0.000672
  230   0.048677    -8.171569     -7.638778       0.045436       0.000672
  231   0.048696    -8.181320     -7.646059       0.045437       0.000672
  232   0.048746    -8.190446     -7.652560       0.045437       0.000672
  233   0.048752    -8.198966     -7.658366       0.045437       0.000672
  234   0.048744    -8.207188     -7.663914       0.045437       0.000672
  235   0.048735    -8.215532     -7.669749       0.045437       0.000672
  236   0.048729    -8.224410     -7.676377       0.045438       0.000672
  237   0.048725    -8.234222     -7.684282       0.045438       0.000672
  238   0.048722    -8.245332     -7.693900       0.045438       0.000672
  239   0.048723    -8.258068     -7.705627       0.045438       0.000672

---------------------- Local Time Stepping Summary ----------------------
MG level: 0 -> Min. DT: 0.000493228. Max. DT: 3.63327. CFL: 10.
MG level: 1 -> Min. DT: 0.000782073. Max. DT: 5.553. CFL: 8.11871.
MG level: 2 -> Min. DT: 0.00105141. Max. DT: 7.42433. CFL: 6.5465.
-------------------------------------------------------------------------

----------------------- Residual Evolution Summary ----------------------
log10[Maximum residual]: -7.10478.
Maximum residual point 407, located at (0.551992, 0.057378).
-------------------------------------------------------------------------

 Iter    Time(s)     Res[Rho]     Res[RhoE]      CL(Total)      CD(Total)
  240   0.048724    -8.272697     -7.719795       0.045438       0.000672
  241   0.048794    -8.289399     -7.736633       0.045438       0.000672
  242   0.048789    -8.308230     -7.756220       0.045439       0.000672
  243   0.048789    -8.329088     -7.778436       0.045439       0.000672
  244   0.048782    -8.351694     -7.802925       0.045439       0.000672
  245   0.048778    -8.375611     -7.829115       0.045439       0.000672
  246   0.048772    -8.400296     -7.856270       0.045439       0.000672
  247   0.048769    -8.425183     -7.883611       0.045439       0.000672
  248   0.048762    -8.449774     -7.910441       0.045439       0.000672
  249   0.048758    -8.473708     -7.936254       0.045439       0.000672
  250   0.048755    -8.496794     -7.960784       0.045440       0.000672

-------------------------- File Output Summary --------------------------
Writing comma-separated values (CSV) surface files.
Merging connectivities in the Master node.
Merging coordinates in the Master node.
Merging solution in the Master node.
Writing SU2 native restart file.
Writing Paraview ASCII volume solution file.
Writing Paraview ASCII surface solution file.
Writing the forces breakdown file.
-------------------------------------------------------------------------

  251   0.048997    -8.519007     -7.984010       0.045440       0.000672
  252   0.048988    -8.540462     -8.006110       0.045440       0.000672
  253   0.048981    -8.561384     -8.027410       0.045440       0.000672
  254   0.048982    -8.582065     -8.048324       0.045440       0.000672
  255   0.048976    -8.602829     -8.069302       0.045440       0.000672
  256   0.048970    -8.624002     -8.090781       0.045440       0.000672
  257   0.048963    -8.645887     -8.113162       0.045440       0.000672
  258   0.048957    -8.668752     -8.136791       0.045440       0.000672
  259   0.048954    -8.692828     -8.161965       0.045441       0.000672
  260   0.048949    -8.718305     -8.188927       0.045441       0.000672
  261   0.048946    -8.745344     -8.217887       0.045441       0.000672
  262   0.048944    -8.774072     -8.249010       0.045441       0.000672
  263   0.048936    -8.804562     -8.282403       0.045441       0.000672
  264   0.048934    -8.836768     -8.318012       0.045441       0.000672
  265   0.048933    -8.870313     -8.355323       0.045441       0.000672
  266   0.048929    -8.903806     -8.392370       0.045441       0.000672
  267   0.048926    -8.932293     -8.422184       0.045441       0.000672
  268   0.048922    -8.948546     -8.435758       0.045441       0.000672
  269   0.048917    -8.964772     -8.450067       0.045441       0.000672
  270   0.048911    -8.980509     -8.464128       0.045441       0.000672
  271   0.048907    -8.991311     -8.471314       0.045441       0.000672
  272   0.048906    -8.999233     -8.474947       0.045441       0.000672
  273   0.048909    -9.007172     -8.479344       0.045442       0.000672
  274   0.048903    -9.015124     -8.484335       0.045442       0.000672
  275   0.048896    -9.024667     -8.491773       0.045442       0.000672
  276   0.048889    -9.035723     -8.501311       0.045442       0.000672
  277   0.048889    -9.047907     -8.512279       0.045442       0.000672
  278   0.048887    -9.060645     -8.523862       0.045442       0.000672
  279   0.048884    -9.073505     -8.535508       0.045442       0.000672

---------------------- Local Time Stepping Summary ----------------------
MG level: 0 -> Min. DT: 0.000493228. Max. DT: 3.63327. CFL: 10.
MG level: 1 -> Min. DT: 0.000782073. Max. DT: 5.553. CFL: 8.11871.
MG level: 2 -> Min. DT: 0.00105141. Max. DT: 7.42433. CFL: 6.5465.
-------------------------------------------------------------------------

----------------------- Residual Evolution Summary ----------------------
log10[Maximum residual]: -7.8779.
Maximum residual point 617, located at (0.560818, 0.0727962).
-------------------------------------------------------------------------

 Iter    Time(s)     Res[Rho]     Res[RhoE]      CL(Total)      CD(Total)
  280   0.048880    -9.086342     -8.547070       0.045442       0.000672
  281   0.048875    -9.099242     -8.558702       0.045442       0.000672
  282   0.048875    -9.112417     -8.570701       0.045442       0.000672
  283   0.048870    -9.126090     -8.583364       0.045442       0.000672
  284   0.048865    -9.140440     -8.596916       0.045442       0.000672
  285   0.048859    -9.155583     -8.611497       0.045442       0.000672
  286   0.048854    -9.171583     -8.627178       0.045442       0.000672
  287   0.048850    -9.188466     -8.643981       0.045442       0.000672
  288   0.048845    -9.206235     -8.661896       0.045442       0.000672
  289   0.048840    -9.224864     -8.680879       0.045442       0.000672
  290   0.048839    -9.244303     -8.700853       0.045442       0.000672
  291   0.048837    -9.264476     -8.721713       0.045442       0.000672
  292   0.048834    -9.285291     -8.743334       0.045442       0.000672
  293   0.048834    -9.306658     -8.765595       0.045442       0.000672
  294   0.048827    -9.328498     -8.788396       0.045442       0.000672
  295   0.048821    -9.350761     -8.811674       0.045442       0.000672
  296   0.048818    -9.373429     -8.835412       0.045442       0.000672
  297   0.048812    -9.396517     -8.859639       0.045442       0.000672
  298   0.048808    -9.420064     -8.884414       0.045442       0.000672
  299   0.048803    -9.444122     -8.909813       0.045442       0.000672
  300   0.048804    -9.468742     -8.935907       0.045442       0.000672
  301   0.048803    -9.493959     -8.962750       0.045442       0.000672
  302   0.048798    -9.519785     -8.990360       0.045442       0.000672
  303   0.048792    -9.546207     -9.018716       0.045442       0.000672
  304   0.048788    -9.573181     -9.047758       0.045442       0.000672
  305   0.048783    -9.600645     -9.077403       0.045442       0.000672
  306   0.048777    -9.628527     -9.107553       0.045442       0.000672
  307   0.048770    -9.656758     -9.138120       0.045442       0.000672
  308   0.048769    -9.685283     -9.169036       0.045442       0.000672
  309   0.048794    -9.714064     -9.200258       0.045442       0.000672

-------------------------- File Output Summary --------------------------
Writing comma-separated values (CSV) surface files.
Merging connectivities in the Master node.
Merging coordinates in the Master node.
Merging solution in the Master node.
Writing SU2 native restart file.
Writing Paraview ASCII volume solution file.
Writing Paraview ASCII surface solution file.
Writing the forces breakdown file.
-------------------------------------------------------------------------

History file, closed.

------------------------- Solver Postprocessing -------------------------
Deleted CNumerics container.
Deleted CIntegration container.
Deleted CSolver container.
Deleted CIteration container.
Deleted CInterpolator container.
Deleted CTransfer container.
Deleted CGeometry container.
Deleted CFreeFormDefBox class.
Deleted CSurfaceMovement class.
Deleted CVolumetricMovement class.
Deleted CConfig container.
Deleted COutput class.
-------------------------------------------------------------------------

Completed in 15.214211 seconds on 1 core.

------------------------- Exit Success (SU2_CFD) ------------------------

