
-------------------------------------------------------------------------
|    ___ _   _ ___                                                      |
|   / __| | | |_  )   Release 5.0.0  "Raven"                            |
|   \__ \ |_| |/ /                                                      |
|   |___/\___//___|   Suite (Computational Fluid Dynamics Code)         |
|                                                                       |
-------------------------------------------------------------------------
| SU2 Original Developers: Dr. Francisco D. Palacios.                   |
|                          Dr. Thomas D. Economon.                      |
-------------------------------------------------------------------------
| SU2 Developers:                                                       |
| - Prof. Juan J. Alonso's group at Stanford University.                |
| - Prof. Piero Colonna's group at Delft University of Technology.      |
| - Prof. Nicolas R. Gauger's group at Kaiserslautern U. of Technology. |
| - Prof. Alberto Guardone's group at Polytechnic University of Milan.  |
| - Prof. Rafael Palacios' group at Imperial College London.            |
| - Prof. Edwin van der Weide's group at the University of Twente.      |
| - Prof. Vincent Terrapon's group at the University of Liege.          |
-------------------------------------------------------------------------
| Copyright (C) 2012-2017 SU2, the open-source CFD code.                |
|                                                                       |
| SU2 is free software; you can redistribute it and/or                  |
| modify it under the terms of the GNU Lesser General Public            |
| License as published by the Free Software Foundation; either          |
| version 2.1 of the License, or (at your option) any later version.    |
|                                                                       |
| SU2 is distributed in the hope that it will be useful,                |
| but WITHOUT ANY WARRANTY; without even the implied warranty of        |
| MERCHANTABILITY or FITNESS FOR A PARTICULAR PURPOSE. See the GNU      |
| Lesser General Public License for more details.                       |
|                                                                       |
| You should have received a copy of the GNU Lesser General Public      |
| License along with SU2. If not, see <http://www.gnu.org/licenses/>.   |
-------------------------------------------------------------------------

------------------------ Physical Case Definition -----------------------
Compressible Euler equations.
Mach number: 0.8.
Angle of attack (AoA): 1.25 deg, and angle of sideslip (AoS): 0 deg.
Read flow solution from: solution_flow.dat.
Non-Dimensional simulation (P=1.0, Rho=1.0, T=1.0 at the farfield).
The reference length/area (force coefficient) is 1.
The reference length (moment computation) is 1.
Reference origin (moment computation) is (0.25, 0, 0).
Surface(s) where the force coefficients are evaluated: airfoil.
Surface(s) plotted in the output file: airfoil.
Surface(s) affected by the design variables: airfoil.
Input mesh file name: mesh_NACA0012_inv_deform.su2

---------------------- Space Numerical Integration ----------------------
Jameson-Schmidt-Turkel scheme for the flow inviscid terms.
JST viscous coefficients (1st, 2nd & 4th): 0.15, 0.5, 0.02.
The method includes a grid stretching correction (p = 0.3).
Second order integration.
Gradient computation using Green-Gauss theorem.

---------------------- Time Numerical Integration -----------------------
Local time stepping (steady state simulation).
Euler implicit method for the flow equations.
V Multigrid Cycle, with 2 multigrid levels.
Damping factor for the residual restriction: 1.
Damping factor for the correction prolongation: 1.
No CFL adaptation.
Multigrid Level:                       0     1     2
Courant-Friedrichs-Lewy number:       10
MG PreSmooth coefficients:             1     2     3
MG PostSmooth coefficients:            0     0     0
MG CorrecSmooth coefficients:          0     0     0

------------------------- Convergence Criteria --------------------------
Maximum number of iterations: 1000.
Reduce the density residual 6 orders of magnitude.
The minimum bound for the density residual is 10^(-13).
Start convergence criteria at iteration 10.

-------------------------- Output Information ---------------------------
Writing a flow solution every 250 iterations.
Writing the convergence history every 1 iterations.
The output file format is Tecplot ASCII (.dat).
Convergence history file name: history_direct.
Forces breakdown file name: forces_breakdown.dat.
Surface flow coefficients file name: surface_flow.
Flow variables file name: flow.
Restart flow file name: restart_flow.dat.

------------------- Config File Boundary Information --------------------
Euler wall boundary marker(s): airfoil.
Far-field boundary marker(s): farfield.

---------------------- Read Grid File Information -----------------------
Two dimensional problem.
5233 points before parallel partitioning.
Performing linear partitioning of the grid nodes.
10216 interior elements before parallel partitioning.
Calling the partitioning functions.
Building the graph adjacency structure.
Distributing elements across all ranks.
2 surface markers.
200 boundary elements in index 0 (Marker = airfoil).
50 boundary elements in index 1 (Marker = farfield).
Calling ParMETIS...
Finished partitioning using ParMETIS (547 edge cuts).
Communicating partition data and creating halo layers.
10763 interior elements including halo cells. 
10763 triangles.
5796 vertices including ghost points. 
Establishing MPI communication patterns.

------------------------- Geometry Preprocessing ------------------------
Setting point connectivity.
Renumbering points (Reverse Cuthill McKee Ordering).
Recomputing point connectivity.
Setting element connectivity.
Checking the numerical grid orientation.
Identifying edges and vertices.
Computing centers of gravity.
Setting the control volume structure.
Area of the computational grid: 1.3e+03.
Searching for the closest normal neighbors to the surfaces.
Compute the surface curvature.
Max K: 7.84e+03. Mean K: 35.6. Standard deviation K: 494.
Checking for periodicity.
Setting the multigrid structure.
MG level: 0 -> CVs: 5796. Agglomeration rate 1/1.00. CFL 10.
MG level: 1 -> CVs: 1800. Agglomeration rate 1/3.22. CFL 8.36.
MG level: 2 -> CVs: 626. Agglomeration rate 1/2.88. CFL 7.39.
Computing wall distances.
Wetted area = 2.03 m.
Area projection in the x-plane = 0.108 m, y-plane = 1 m.

------------------------- Driver information --------------------------
A Fluid driver has been instantiated.

------------------------ Iteration Preprocessing ------------------------
Zone 1: Euler/Navier-Stokes/RANS flow iteration.

------------------------- Solver Preprocessing --------------------------
Inviscid flow: Computing density based on free-stream
temperature and pressure using the ideal gas law.
Force coefficients computed using free-stream values.
-- Input conditions:
Fluid Model: STANDARD_AIR 
Specific gas constant: 287.058 N.m/kg.K.
Specific gas constant (non-dim): 1
Specific Heat Ratio: 1.4
Free-stream static pressure: 101325 Pa.
Free-stream total pressure: 154454 Pa.
Free-stream temperature: 288.15 K.
Free-stream density: 1.22498 kg/m^3.
Free-stream velocity: (272.173, 5.93883) m/s. Magnitude: 272.238 m/s (529.186 KTS).
Free-stream total energy per unit mass: 243846 m^2/s^2.
-- Reference values:
Reference specific gas constant: 287.058 N.m/kg.K.
Reference pressure: 101325 Pa.
Reference temperature: 288.15 K.
Reference density: 1.22498 kg/m^3.
Reference velocity: 287.603 m/s.
Reference energy per unit mass: 82715.8 m^2/s^2.
-- Resulting non-dimensional state:
Mach number (non-dim): 0.8
Specific gas constant (non-dim): 1
Free-stream temperature (non-dim): 1
Free-stream pressure (non-dim): 1
Free-stream density (non-dim): 1
Free-stream velocity (non-dim): (0.946348, 0.0206494). Magnitude: 0.946573
Free-stream total energy per unit mass (non-dim): 2.948

Initialize Jacobian structure (Euler). MG level: 0.
Initialize Jacobian structure (Euler). MG level: 1.
Initialize Jacobian structure (Euler). MG level: 2.

----------------- Integration and Numerics Preprocessing ----------------
Integration Preprocessing.
Numerics Preprocessing.

------------------------------ Begin Solver -----------------------------

---------------------- Local Time Stepping Summary ----------------------
MG level: 0 -> Min. DT: 0.000497771. Max. DT: 3.62809. CFL: 10.
MG level: 1 -> Min. DT: 0.000799974. Max. DT: 5.71051. CFL: 8.35917.
MG level: 2 -> Min. DT: 0.00155914. Max. DT: 8.30955. CFL: 7.39444.
-------------------------------------------------------------------------

----------------------- Residual Evolution Summary ----------------------
log10[Maximum residual]: -4.27232.
Maximum residual point 105, located at (0.00752, 0.0119216).
-------------------------------------------------------------------------

 Iter    Time(s)     Res[Rho]     Res[RhoE]      CL(Total)      CD(Total)
 3273   0.016265    -5.374949     -4.778569       0.065970       0.002520
 3274   0.015731    -5.433147     -4.829748       0.065340       0.001831
 3275   0.015798    -5.435803     -4.835815       0.064894       0.001577
 3276   0.015911    -5.403847     -4.800212       0.064366       0.001358
 3277   0.015947    -5.361118     -4.755631       0.063763       0.001189
 3278   0.015806    -5.328034     -4.724644       0.063085       0.001073
 3279   0.015981    -5.298512     -4.696187       0.062402       0.000975
 3280   0.015908    -5.271243     -4.668002       0.061760       0.000893
 3281   0.015888    -5.253081     -4.649240       0.061176       0.000828
 3282   0.015875    -5.242479     -4.638339       0.060658       0.000774
 3283   0.015806    -5.238267     -4.633985       0.060199       0.000731
 3284   0.015770    -5.238948     -4.634578       0.059789       0.000698
 3285   0.015774    -5.242751     -4.638329       0.059417       0.000675
 3286   0.015807    -5.248245     -4.643854       0.059077       0.000658
 3287   0.015885    -5.254621     -4.650356       0.058768       0.000645
 3288   0.015845    -5.261361     -4.657221       0.058486       0.000636
 3289   0.015818    -5.267936     -4.663724       0.058230       0.000628
 3290   0.015798    -5.273783     -4.669068       0.057998       0.000622
 3291   0.016076    -5.278505     -4.672710       0.057786       0.000618
 3292   0.016172    -5.282079     -4.674644       0.057592       0.000614
 3293   0.016155    -5.284905     -4.675431       0.057414       0.000611
 3294   0.016291    -5.287639     -4.675947       0.057251       0.000608
 3295   0.016443    -5.291035     -4.677144       0.057101       0.000604
 3296   0.016404    -5.295969     -4.680051       0.056965       0.000600
 3297   0.016362    -5.303495     -4.685846       0.056840       0.000594
 3298   0.016338    -5.315002     -4.696036       0.056726       0.000586
 3299   0.016324    -5.332320     -4.712591       0.056620       0.000576
 3300   0.016292    -5.357836     -4.738087       0.056519       0.000562
 3301   0.016305    -5.394801     -4.776035       0.056421       0.000546
 3302   0.016278    -5.447187     -4.830780       0.056323       0.000527
 3303   0.016266    -5.514385     -4.901883       0.056220       0.000507
 3304   0.016243    -5.573975     -4.965281       0.056095       0.000490
 3305   0.016210    -5.609369     -5.003119       0.055945       0.000476
 3306   0.016205    -5.632257     -5.028411       0.055780       0.000463
 3307   0.016200    -5.651078     -5.050251       0.055610       0.000452
 3308   0.016275    -5.666202     -5.068419       0.055440       0.000444
 3309   0.016360    -5.675112     -5.079585       0.055272       0.000436
 3310   0.016505    -5.679426     -5.085542       0.055109       0.000429
 3311   0.016482    -5.682387     -5.090071       0.054953       0.000422
 3312   0.016470    -5.685081     -5.094398       0.054805       0.000417

---------------------- Local Time Stepping Summary ----------------------
MG level: 0 -> Min. DT: 0.000497894. Max. DT: 3.6281. CFL: 10.
MG level: 1 -> Min. DT: 0.000800088. Max. DT: 5.71059. CFL: 8.35917.
MG level: 2 -> Min. DT: 0.00155968. Max. DT: 8.30964. CFL: 7.39444.
-------------------------------------------------------------------------

----------------------- Residual Evolution Summary ----------------------
log10[Maximum residual]: -4.7459.
Maximum residual point 1582, located at (0.537474, 0.217571).
-------------------------------------------------------------------------

 Iter    Time(s)     Res[Rho]     Res[RhoE]      CL(Total)      CD(Total)
 3313   0.016442    -5.686834     -5.097689       0.054665       0.000413
 3314   0.016423    -5.687338     -5.099521       0.054535       0.000411
 3315   0.016411    -5.687018     -5.100298       0.054413       0.000410
 3316   0.016437    -5.686286     -5.100416       0.054302       0.000410
 3317   0.016409    -5.685415     -5.100144       0.054200       0.000411
 3318   0.016396    -5.684772     -5.099887       0.054107       0.000412
 3319   0.016504    -5.684749     -5.100095       0.054022       0.000414
 3320   0.016516    -5.685639     -5.101112       0.053944       0.000416
 3321   0.016514    -5.687686     -5.103235       0.053872       0.000418
 3322   0.016497    -5.691132     -5.106763       0.053806       0.000419
 3323   0.016476    -5.696177     -5.111957       0.053743       0.000421
 3324   0.016470    -5.702995     -5.119051       0.053685       0.000422
 3325   0.016453    -5.711750     -5.128275       0.053630       0.000423
 3326   0.016436    -5.722601     -5.139860       0.053578       0.000424
 3327   0.016422    -5.735692     -5.154028       0.053528       0.000425
 3328   0.016419    -5.751135     -5.170968       0.053481       0.000426
 3329   0.016401    -5.769038     -5.190872       0.053436       0.000427
 3330   0.016385    -5.789544     -5.213975       0.053392       0.000427
 3331   0.016377    -5.812857     -5.240591       0.053351       0.000428
 3332   0.016386    -5.839169     -5.271026       0.053311       0.000429
 3333   0.016371    -5.868687     -5.305595       0.053273       0.000430
 3334   0.016363    -5.901578     -5.344555       0.053236       0.000431
 3335   0.016346    -5.937782     -5.387840       0.053202       0.000433
 3336   0.016340    -5.975984     -5.433694       0.053170       0.000435
 3337   0.016337    -6.011459     -5.475712       0.053141       0.000437
 3338   0.016322    -6.033998     -5.500392       0.053118       0.000439
 3339   0.016316    -6.037369     -5.500905       0.053101       0.000442
 3340   0.016306    -6.032764     -5.492392       0.053087       0.000445
 3341   0.016295    -6.026482     -5.481640       0.053075       0.000448
 3342   0.016283    -6.023192     -5.474865       0.053067       0.000451
 3343   0.016279    -6.023797     -5.473496       0.053059       0.000453
 3344   0.016270    -6.028949     -5.478283       0.053051       0.000456
 3345   0.016255    -6.039014     -5.489554       0.053044       0.000458
 3346   0.016248    -6.050444     -5.502609       0.053038       0.000461
 3347   0.016244    -6.059880     -5.512963       0.053032       0.000463
 3348   0.016231    -6.066791     -5.520053       0.053026       0.000464
 3349   0.016221    -6.072399     -5.525596       0.053022       0.000466
 3350   0.016213    -6.078092     -5.531359       0.053018       0.000467
 3351   0.016213    -6.084487     -5.538006       0.053015       0.000468
 3352   0.016208    -6.091580     -5.545416       0.053012       0.000469

---------------------- Local Time Stepping Summary ----------------------
MG level: 0 -> Min. DT: 0.000497775. Max. DT: 3.6281. CFL: 10.
MG level: 1 -> Min. DT: 0.000800032. Max. DT: 5.71061. CFL: 8.35917.
MG level: 2 -> Min. DT: 0.0015593. Max. DT: 8.30966. CFL: 7.39444.
-------------------------------------------------------------------------

----------------------- Residual Evolution Summary ----------------------
log10[Maximum residual]: -4.9174.
Maximum residual point 1455, located at (0.460061, 0.187725).
-------------------------------------------------------------------------

 Iter    Time(s)     Res[Rho]     Res[RhoE]      CL(Total)      CD(Total)
 3353   0.016209    -6.099205     -5.553361       0.053009       0.000469
 3354   0.016203    -6.107373     -5.561902       0.053006       0.000469
 3355   0.016219    -6.116213     -5.571259       0.053003       0.000468
 3356   0.016257    -6.125899     -5.581675       0.053000       0.000468
 3357   0.016273    -6.136636     -5.593402       0.052997       0.000467
 3358   0.016259    -6.148665     -5.606733       0.052994       0.000467
 3359   0.016255    -6.162234     -5.621959       0.052991       0.000467
 3360   0.016247    -6.177556     -5.639333       0.052989       0.000466
 3361   0.016237    -6.194746     -5.658969       0.052986       0.000466
 3362   0.016234    -6.213771     -5.680795       0.052985       0.000466
 3363   0.016224    -6.234621     -5.704786       0.052983       0.000466
 3364   0.016214    -6.257105     -5.730686       0.052982       0.000466
 3365   0.016218    -6.280578     -5.757683       0.052982       0.000466
 3366   0.016212    -6.303547     -5.783900       0.052982       0.000467
 3367   0.016209    -6.321921     -5.803495       0.052983       0.000467
 3368   0.016204    -6.330511     -5.809676       0.052984       0.000467
 3369   0.016203    -6.331537     -5.807225       0.052985       0.000467
 3370   0.016228    -6.324773     -5.795909       0.052987       0.000467
 3371   0.016281    -6.316340     -5.783837       0.052987       0.000468
 3372   0.016293    -6.309930     -5.775403       0.052988       0.000468
 3373   0.016285    -6.306626     -5.771335       0.052988       0.000468
 3374   0.016276    -6.306464     -5.771256       0.052987       0.000468
 3375   0.016267    -6.309375     -5.774925       0.052986       0.000468
 3376   0.016266    -6.315356     -5.782238       0.052984       0.000468
 3377   0.016256    -6.324235     -5.792909       0.052982       0.000468
 3378   0.016254    -6.335624     -5.806380       0.052980       0.000468
 3379   0.016246    -6.349042     -5.821992       0.052978       0.000468
 3380   0.016239    -6.364107     -5.839275       0.052976       0.000468
 3381   0.016234    -6.380865     -5.858347       0.052973       0.000468
 3382   0.016233    -6.399525     -5.879474       0.052971       0.000468
 3383   0.016229    -6.420157     -5.902649       0.052968       0.000467
 3384   0.016221    -6.442753     -5.927762       0.052966       0.000467
 3385   0.016213    -6.466953     -5.954344       0.052964       0.000467
 3386   0.016209    -6.491624     -5.980916       0.052962       0.000467
 3387   0.016202    -6.515519     -6.005960       0.052961       0.000467
 3388   0.016196    -6.538040     -6.028988       0.052960       0.000466
 3389   0.016190    -6.559054     -6.050084       0.052958       0.000466
 3390   0.016184    -6.578476     -6.069180       0.052957       0.000466
 3391   0.016181    -6.597143     -6.087611       0.052955       0.000466
 3392   0.016175    -6.616114     -6.106919       0.052953       0.000466

---------------------- Local Time Stepping Summary ----------------------
MG level: 0 -> Min. DT: 0.000497781. Max. DT: 3.6281. CFL: 10.
MG level: 1 -> Min. DT: 0.000800034. Max. DT: 5.71061. CFL: 8.35917.
MG level: 2 -> Min. DT: 0.00155934. Max. DT: 8.30966. CFL: 7.39444.
-------------------------------------------------------------------------

----------------------- Residual Evolution Summary ----------------------
log10[Maximum residual]: -5.43341.
Maximum residual point 407, located at (0.551953, 0.0588112).
-------------------------------------------------------------------------

 Iter    Time(s)     Res[Rho]     Res[RhoE]      CL(Total)      CD(Total)
 3393   0.016173    -6.634927     -6.126040       0.052951       0.000466
 3394   0.016171    -6.652716     -6.143591       0.052949       0.000466
 3395   0.016174    -6.669769     -6.160311       0.052947       0.000466
 3396   0.016173    -6.686396     -6.176663       0.052944       0.000466
 3397   0.016166    -6.704461     -6.195367       0.052941       0.000466
 3398   0.016158    -6.721372     -6.212221       0.052938       0.000466
 3399   0.016151    -6.737939     -6.228493       0.052936       0.000466
 3400   0.016148    -6.754672     -6.245057       0.052933       0.000466
 3401   0.016145    -6.772161     -6.262798       0.052930       0.000466
 3402   0.016139    -6.789553     -6.280364       0.052928       0.000466
 3403   0.016136    -6.807836     -6.299199       0.052925       0.000466
 3404   0.016130    -6.827919     -6.320524       0.052923       0.000465
 3405   0.016129    -6.847736     -6.340851       0.052920       0.000465
 3406   0.016121    -6.866360     -6.359147       0.052918       0.000465
 3407   0.016116    -6.884072     -6.376271       0.052916       0.000465
 3408   0.016119    -6.902062     -6.393994       0.052915       0.000465
 3409   0.016113    -6.920145     -6.411846       0.052913       0.000465
 3410   0.016110    -6.937699     -6.428836       0.052912       0.000465
 3411   0.016104    -6.955394     -6.446035       0.052911       0.000465
 3412   0.016099    -6.973973     -6.464473       0.052910       0.000465
 3413   0.016094    -6.992888     -6.483153       0.052910       0.000465
 3414   0.016090    -7.011895     -6.501774       0.052909       0.000465
 3415   0.016084    -7.032233     -6.522258       0.052909       0.000465
 3416   0.016080    -7.054673     -6.545587       0.052909       0.000465
 3417   0.016077    -7.078640     -6.570576       0.052909       0.000465
 3418   0.016107    -7.103477     -6.596175       0.052909       0.000465
 3419   0.016141    -7.128925     -6.622214       0.052909       0.000465
 3420   0.016140    -7.154878     -6.648709       0.052909       0.000465
 3421   0.016134    -7.181134     -6.675427       0.052909       0.000465
 3422   0.016129    -7.207482     -6.702115       0.052909       0.000465
 3423   0.016123    -7.233864     -6.728755       0.052910       0.000465
 3424   0.016117    -7.260290     -6.755391       0.052910       0.000465
 3425   0.016111    -7.286617     -6.781786       0.052911       0.000465
 3426   0.016108    -7.312628     -6.807640       0.052911       0.000465
 3427   0.016103    -7.338183     -6.832851       0.052912       0.000465
 3428   0.016098    -7.362913     -6.856984       0.052912       0.000465
 3429   0.016094    -7.385866     -6.878699       0.052913       0.000465
 3430   0.016090    -7.405826     -6.896964       0.052913       0.000465
 3431   0.016085    -7.428346     -6.919354       0.052914       0.000465
 3432   0.016081    -7.452488     -6.943902       0.052914       0.000465

---------------------- Local Time Stepping Summary ----------------------
MG level: 0 -> Min. DT: 0.000497778. Max. DT: 3.6281. CFL: 10.
MG level: 1 -> Min. DT: 0.000800026. Max. DT: 5.71061. CFL: 8.35917.
MG level: 2 -> Min. DT: 0.00155933. Max. DT: 8.30966. CFL: 7.39444.
-------------------------------------------------------------------------

----------------------- Residual Evolution Summary ----------------------
log10[Maximum residual]: -6.17527.
Maximum residual point 357, located at (0.520348, 0.0600716).
-------------------------------------------------------------------------

 Iter    Time(s)     Res[Rho]     Res[RhoE]      CL(Total)      CD(Total)
 3433   0.016097    -7.453065     -6.935681       0.052914       0.000465
 3434   0.016124    -7.470557     -6.953376       0.052915       0.000465
 3435   0.016141    -7.497915     -6.988757       0.052915       0.000465
 3436   0.016138    -7.526969     -7.020189       0.052915       0.000465
 3437   0.016135    -7.559498     -7.055548       0.052916       0.000465
 3438   0.016132    -7.579312     -7.071593       0.052916       0.000465
 3439   0.016129    -7.597940     -7.088085       0.052916       0.000465
 3440   0.016131    -7.634025     -7.130504       0.052917       0.000465
 3441   0.016128    -7.653175     -7.146535       0.052917       0.000465
 3442   0.016123    -7.676763     -7.169474       0.052917       0.000465
 3443   0.016122    -7.695173     -7.186038       0.052918       0.000465
 3444   0.016119    -7.719274     -7.211654       0.052918       0.000465
 3445   0.016116    -7.726552     -7.214043       0.052918       0.000465
 3446   0.016113    -7.745414     -7.232392       0.052919       0.000465
 3447   0.016110    -7.768591     -7.258175       0.052919       0.000465
 3448   0.016108    -7.782949     -7.270053       0.052919       0.000465
 3449   0.016102    -7.811879     -7.302779       0.052919       0.000465
 3450   0.016098    -7.829124     -7.318275       0.052920       0.000465
 3451   0.016093    -7.833410     -7.316383       0.052920       0.000465
 3452   0.016096    -7.864590     -7.354266       0.052920       0.000465
 3453   0.016092    -7.890085     -7.382962       0.052921       0.000465
 3454   0.016092    -7.913865     -7.406685       0.052921       0.000465
 3455   0.016090    -7.938502     -7.432314       0.052921       0.000465
 3456   0.016090    -7.953769     -7.444687       0.052921       0.000465
 3457   0.016088    -7.978192     -7.471331       0.052922       0.000465
 3458   0.016090    -8.004824     -7.500842       0.052922       0.000465
 3459   0.016092    -8.027078     -7.522746       0.052922       0.000465
 3460   0.016088    -8.038134     -7.528705       0.052922       0.000465
 3461   0.016084    -8.061135     -7.553911       0.052923       0.000465
 3462   0.016081    -8.079482     -7.572950       0.052923       0.000465
 3463   0.016077    -8.082346     -7.568742       0.052923       0.000465
 3464   0.016073    -8.096957     -7.583234       0.052923       0.000465
 3465   0.016072    -8.105924     -7.590594       0.052924       0.000465
 3466   0.016069    -8.114713     -7.596973       0.052924       0.000465
 3467   0.016068    -8.121158     -7.601298       0.052924       0.000465
 3468   0.016070    -8.149954     -7.637334       0.052924       0.000465
 3469   0.016068    -8.162138     -7.647855       0.052925       0.000465
 3470   0.016064    -8.184375     -7.671439       0.052925       0.000465
 3471   0.016063    -8.194118     -7.678572       0.052925       0.000465
 3472   0.016061    -8.218630     -7.706365       0.052925       0.000465

---------------------- Local Time Stepping Summary ----------------------
MG level: 0 -> Min. DT: 0.000497775. Max. DT: 3.6281. CFL: 10.
MG level: 1 -> Min. DT: 0.000800026. Max. DT: 5.71061. CFL: 8.35917.
MG level: 2 -> Min. DT: 0.00155932. Max. DT: 8.30966. CFL: 7.39444.
-------------------------------------------------------------------------

----------------------- Residual Evolution Summary ----------------------
log10[Maximum residual]: -7.01707.
Maximum residual point 782, located at (0.489883, 0.0947465).
-------------------------------------------------------------------------

 Iter    Time(s)     Res[Rho]     Res[RhoE]      CL(Total)      CD(Total)
 3473   0.016062    -8.227832     -7.712668       0.052925       0.000465
 3474   0.016059    -8.248972     -7.735459       0.052926       0.000465
 3475   0.016057    -8.257936     -7.741518       0.052926       0.000465
 3476   0.016054    -8.274312     -7.758051       0.052926       0.000465
 3477   0.016051    -8.282477     -7.763582       0.052926       0.000465
 3478   0.016047    -8.300192     -7.782623       0.052926       0.000465
 3479   0.016045    -8.308677     -7.788824       0.052926       0.000465
 3480   0.016063    -8.323125     -7.803275       0.052927       0.000465
 3481   0.016082    -8.336167     -7.815990       0.052927       0.000465
 3482   0.016093    -8.359107     -7.842245       0.052927       0.000465
 3483   0.016095    -8.372437     -7.854117       0.052927       0.000465
 3484   0.016092    -8.396375     -7.880756       0.052927       0.000465
 3485   0.016090    -8.415574     -7.900251       0.052927       0.000465
 3486   0.016085    -8.443314     -7.931756       0.052927       0.000465
 3487   0.016081    -8.453692     -7.937729       0.052927       0.000465
 3488   0.016080    -8.485851     -7.976668       0.052928       0.000465
 3489   0.016081    -8.496543     -7.982800       0.052928       0.000465
 3490   0.016079    -8.524371     -8.014577       0.052928       0.000465
 3491   0.016076    -8.531046     -8.015452       0.052928       0.000465
 3492   0.016074    -8.557660     -8.046528       0.052928       0.000465
 3493   0.016072    -8.560070     -8.042146       0.052928       0.000465
 3494   0.016071    -8.586829     -8.074176       0.052928       0.000465
 3495   0.016084    -8.587628     -8.068163       0.052928       0.000465
 3496   0.016107    -8.613104     -8.098339       0.052928       0.000465
 3497   0.016124    -8.619731     -8.100703       0.052928       0.000465
 3498   0.016121    -8.646092     -8.131739       0.052928       0.000465
 3499   0.016118    -8.654049     -8.135345       0.052928       0.000465
 3500   0.016115    -8.682909     -8.169765       0.052929       0.000465
 3501   0.016112    -8.692048     -8.174482       0.052929       0.000465
 3502   0.016109    -8.719508     -8.206287       0.052929       0.000465
 3503   0.016110    -8.729901     -8.212722       0.052929       0.000465
 3504   0.016110    -8.754948     -8.240937       0.052929       0.000465
 3505   0.016107    -8.764447     -8.246398       0.052929       0.000465
 3506   0.016105    -8.788353     -8.273265       0.052929       0.000465
 3507   0.016105    -8.798972     -8.280608       0.052929       0.000465
 3508   0.016105    -8.822199     -8.306422       0.052929       0.000465
 3509   0.016102    -8.836535     -8.318963       0.052929       0.000465
 3510   0.016100    -8.860922     -8.346013       0.052929       0.000465
 3511   0.016098    -8.879881     -8.364562       0.052929       0.000465
 3512   0.016097    -8.907168     -8.395005       0.052929       0.000465

---------------------- Local Time Stepping Summary ----------------------
MG level: 0 -> Min. DT: 0.000497775. Max. DT: 3.6281. CFL: 10.
MG level: 1 -> Min. DT: 0.000800027. Max. DT: 5.71061. CFL: 8.35917.
MG level: 2 -> Min. DT: 0.00155932. Max. DT: 8.30966. CFL: 7.39444.
-------------------------------------------------------------------------

----------------------- Residual Evolution Summary ----------------------
log10[Maximum residual]: -7.66129.
Maximum residual point 357, located at (0.520348, 0.0600716).
-------------------------------------------------------------------------

 Iter    Time(s)     Res[Rho]     Res[RhoE]      CL(Total)      CD(Total)
 3513   0.016096    -8.929900     -8.417979       0.052929       0.000465
 3514   0.016097    -8.954578     -8.443667       0.052929       0.000465
 3515   0.016095    -8.978229     -8.467841       0.052929       0.000465
 3516   0.016092    -8.999706     -8.488822       0.052929       0.000465
 3517   0.016089    -9.021256     -8.510288       0.052929       0.000465
 3518   0.016088    -9.042917     -8.532138       0.052929       0.000465
 3519   0.016085    -9.063642     -8.552612       0.052929       0.000465
 3520   0.016087    -9.084160     -8.572893       0.052929       0.000465
 3521   0.016087    -9.104579     -8.593162       0.052929       0.000465
 3522   0.016086    -9.125072     -8.613594       0.052929       0.000465
 3523   0.016083    -9.146283     -8.635105       0.052929       0.000465

-------------------------- File Output Summary --------------------------
Writing comma-separated values (CSV) surface files.
Merging coordinates in the Master node.
Merging solution in the Master node.
Writing SU2 native restart file.
Writing the forces breakdown file.
-------------------------------------------------------------------------

 3524   0.016267    -9.168091     -8.657366       0.052929       0.000465
 3525   0.016264    -9.191065     -8.681082       0.052929       0.000465
 3526   0.016263    -9.214681     -8.705407       0.052929       0.000465
 3527   0.016261    -9.238020     -8.729034       0.052929       0.000465
 3528   0.016258    -9.260754     -8.751660       0.052929       0.000465
 3529   0.016254    -9.283387     -8.774210       0.052929       0.000465
 3530   0.016253    -9.306041     -8.796806       0.052929       0.000465
 3531   0.016249    -9.328838     -8.819610       0.052929       0.000465
 3532   0.016245    -9.351173     -8.841777       0.052929       0.000465
 3533   0.016242    -9.372231     -8.862162       0.052929       0.000465
 3534   0.016238    -9.387906     -8.875075       0.052929       0.000465
 3535   0.016236    -9.400292     -8.884327       0.052929       0.000465
 3536   0.016240    -9.420933     -8.906683       0.052929       0.000465
 3537   0.016237    -9.445877     -8.935422       0.052929       0.000465
 3538   0.016235    -9.468007     -8.957409       0.052929       0.000465
 3539   0.016233    -9.494993     -8.986094       0.052929       0.000465
 3540   0.016237    -9.518690     -9.010165       0.052929       0.000465
 3541   0.016245    -9.528835     -9.014944       0.052929       0.000465
 3542   0.016248    -9.529847     -9.009253       0.052929       0.000465
 3543   0.016247    -9.562235     -9.050074       0.052929       0.000465
 3544   0.016243    -9.581912     -9.072615       0.052929       0.000465
 3545   0.016240    -9.606940     -9.096960       0.052929       0.000465
 3546   0.016239    -9.631924     -9.123102       0.052929       0.000465
 3547   0.016238    -9.650647     -9.140341       0.052929       0.000465
 3548   0.016235    -9.639465     -9.117793       0.052929       0.000465
 3549   0.016232    -9.646988     -9.123738       0.052929       0.000465
 3550   0.016230    -9.686597     -9.176586       0.052929       0.000465
 3551   0.016226    -9.715886     -9.210474       0.052929       0.000465
 3552   0.016223    -9.738027     -9.228444       0.052929       0.000465

---------------------- Local Time Stepping Summary ----------------------
MG level: 0 -> Min. DT: 0.000497775. Max. DT: 3.6281. CFL: 10.
MG level: 1 -> Min. DT: 0.000800026. Max. DT: 5.71061. CFL: 8.35917.
MG level: 2 -> Min. DT: 0.00155932. Max. DT: 8.30966. CFL: 7.39444.
-------------------------------------------------------------------------

----------------------- Residual Evolution Summary ----------------------
log10[Maximum residual]: -8.55707.
Maximum residual point 582, located at (0.529022, 0.0757169).
-------------------------------------------------------------------------

 Iter    Time(s)     Res[Rho]     Res[RhoE]      CL(Total)      CD(Total)
 3553   0.016220    -9.750642     -9.237296       0.052929       0.000465
 3554   0.016221    -9.772434     -9.261516       0.052929       0.000465
 3555   0.016229    -9.753974     -9.230732       0.052929       0.000465
 3556   0.016253    -9.763142     -9.240118       0.052929       0.000465
 3557   0.016254    -9.803827     -9.294717       0.052929       0.000465
 3558   0.016249    -9.828623     -9.321558       0.052929       0.000465
 3559   0.016245    -9.843013     -9.330289       0.052929       0.000465
 3560   0.016255    -9.862702     -9.350757       0.052929       0.000465
 3561   0.016252    -9.876755     -9.364792       0.052929       0.000465
 3562   0.016248    -9.876178     -9.357705       0.052929       0.000465
 3563   0.016245    -9.879046     -9.358122       0.052929       0.000465
 3564   0.016253    -9.905656     -9.391313       0.052929       0.000465
 3565   0.016251    -9.920548     -9.406000       0.052929       0.000465
 3566   0.016250    -9.946236     -9.434460       0.052929       0.000465
 3567   0.016248    -9.967277     -9.456855       0.052929       0.000465
 3568   0.016244    -9.978420     -9.464514       0.052929       0.000465
 3569   0.016241    -9.989978     -9.473902       0.052929       0.000465
 3570   0.016239    -9.968649     -9.441218       0.052929       0.000465
 3571   0.016237    -9.970183     -9.441403       0.052929       0.000465
 3572   0.016235    -9.995194     -9.475251       0.052929       0.000465
 3573   0.016232   -10.036404     -9.529951       0.052929       0.000465
 3574   0.016229   -10.050966     -9.539636       0.052929       0.000465
 3575   0.016226   -10.068163     -9.555765       0.052929       0.000465
 3576   0.016223   -10.083346     -9.570443       0.052929       0.000465
 3577   0.016221   -10.104406     -9.592922       0.052929       0.000465
 3578   0.016219   -10.105676     -9.588567       0.052929       0.000465
 3579   0.016222   -10.121734     -9.605476       0.052929       0.000465
 3580   0.016222   -10.119252     -9.597357       0.052929       0.000465
 3581   0.016221   -10.156369     -9.645997       0.052929       0.000465
 3582   0.016219   -10.173654     -9.662065       0.052929       0.000465
 3583   0.016216   -10.192521     -9.680531       0.052929       0.000465
 3584   0.016213   -10.186621     -9.665537       0.052929       0.000465
 3585   0.016210   -10.217278     -9.704874       0.052929       0.000465
 3586   0.016209   -10.226950     -9.711943       0.052929       0.000465
 3587   0.016206   -10.256290     -9.746095       0.052929       0.000465
 3588   0.016203   -10.280938     -9.774026       0.052929       0.000465
 3589   0.016200   -10.288951     -9.775978       0.052929       0.000465
 3590   0.016199   -10.315898     -9.807242       0.052929       0.000465
 3591   0.016196   -10.333827     -9.824526       0.052929       0.000465
 3592   0.016194   -10.355346     -9.846313       0.052929       0.000465

---------------------- Local Time Stepping Summary ----------------------
MG level: 0 -> Min. DT: 0.000497775. Max. DT: 3.6281. CFL: 10.
MG level: 1 -> Min. DT: 0.000800026. Max. DT: 5.71061. CFL: 8.35917.
MG level: 2 -> Min. DT: 0.00155932. Max. DT: 8.30966. CFL: 7.39444.
-------------------------------------------------------------------------

----------------------- Residual Evolution Summary ----------------------
log10[Maximum residual]: -9.13916.
Maximum residual point 1072, located at (0.515872, 0.13598).
-------------------------------------------------------------------------

 Iter    Time(s)     Res[Rho]     Res[RhoE]      CL(Total)      CD(Total)
 3593   0.016191   -10.362179     -9.847973       0.052929       0.000465
 3594   0.016188   -10.382896     -9.870854       0.052929       0.000465
 3595   0.016187   -10.399737     -9.888034       0.052929       0.000465
 3596   0.016185   -10.415146     -9.901904       0.052929       0.000465
 3597   0.016182   -10.446683     -9.939905       0.052929       0.000465
 3598   0.016181   -10.470856     -9.964505       0.052929       0.000465
 3599   0.016180   -10.485707     -9.975310       0.052929       0.000465
 3600   0.016178   -10.508050     -9.998879       0.052929       0.000465
 3601   0.016176   -10.528869    -10.020386       0.052929       0.000465
 3602   0.016174   -10.553558    -10.046877       0.052929       0.000465
 3603   0.016184   -10.567802    -10.057382       0.052929       0.000465
 3604   0.016197   -10.590632    -10.082046       0.052929       0.000465
 3605   0.016194   -10.612432    -10.104548       0.052929       0.000465
 3606   0.016190   -10.632324    -10.123497       0.052929       0.000465
 3607   0.016188   -10.646258    -10.134286       0.052929       0.000465
 3608   0.016184   -10.664053    -10.152114       0.052929       0.000465
 3609   0.016182   -10.688941    -10.180401       0.052929       0.000465
 3610   0.016180   -10.710791    -10.202003       0.052929       0.000465
 3611   0.016177   -10.726462    -10.214569       0.052929       0.000465
 3612   0.016175   -10.746718    -10.235309       0.052929       0.000465
 3613   0.016171   -10.770393    -10.261115       0.052929       0.000465
 3614   0.016169   -10.793835    -10.284951       0.052929       0.000465
 3615   0.016168   -10.816035    -10.306667       0.052929       0.000465
 3616   0.016164   -10.837382    -10.327579       0.052929       0.000465
 3617   0.016167   -10.859329    -10.349643       0.052929       0.000465
 3618   0.016173   -10.880835    -10.371005       0.052929       0.000465
 3619   0.016194   -10.902487    -10.392585       0.052929       0.000465
 3620   0.016191   -10.924853    -10.415401       0.052929       0.000465
 3621   0.016189   -10.946169    -10.436458       0.052929       0.000465
 3622   0.016186   -10.968462    -10.459058       0.052929       0.000465
 3623   0.016187   -10.990442    -10.481108       0.052929       0.000465
 3624   0.016186   -11.012054    -10.502602       0.052929       0.000465
 3625   0.016183   -11.033464    -10.523921       0.052929       0.000465
 3626   0.016181   -11.053764    -10.543665       0.052929       0.000465
 3627   0.016180   -11.073263    -10.562505       0.052929       0.000465
 3628   0.016177   -11.093201    -10.582362       0.052929       0.000465
 3629   0.016176   -11.112049    -10.600594       0.052929       0.000465
 3630   0.016174   -11.129840    -10.617646       0.052929       0.000465
 3631   0.016172   -11.147532    -10.634767       0.052929       0.000465
 3632   0.016171   -11.159930    -10.644697       0.052929       0.000465

---------------------- Local Time Stepping Summary ----------------------
MG level: 0 -> Min. DT: 0.000497775. Max. DT: 3.6281. CFL: 10.
MG level: 1 -> Min. DT: 0.000800026. Max. DT: 5.71061. CFL: 8.35917.
MG level: 2 -> Min. DT: 0.00155932. Max. DT: 8.30966. CFL: 7.39444.
-------------------------------------------------------------------------

----------------------- Residual Evolution Summary ----------------------
log10[Maximum residual]: -9.99784.
Maximum residual point 357, located at (0.520348, 0.0600716).
-------------------------------------------------------------------------

 Iter    Time(s)     Res[Rho]     Res[RhoE]      CL(Total)      CD(Total)
 3633   0.016172   -11.170492    -10.652852       0.052929       0.000465
 3634   0.016170   -11.188880    -10.673092       0.052929       0.000465
 3635   0.016167   -11.208436    -10.694307       0.052929       0.000465
 3636   0.016165   -11.221452    -10.705213       0.052929       0.000465
 3637   0.016162   -11.233805    -10.715809       0.052929       0.000465
 3638   0.016161   -11.247228    -10.728849       0.052929       0.000465

-------------------------- File Output Summary --------------------------
Writing comma-separated values (CSV) surface files.
Merging coordinates in the Master node.
Merging solution in the Master node.
Writing SU2 native restart file.
Writing the forces breakdown file.
-------------------------------------------------------------------------

History file, closed.

------------------------- Solver Postprocessing -------------------------
Deleted CNumerics container.
Deleted CIntegration container.
Deleted CSolver container.
Deleted CIteration container.
Deleted CInterpolator container.
Deleted CTransfer container.
Deleted CGeometry container.
Deleted CFreeFormDefBox class.
Deleted CSurfaceMovement class.
Deleted CVolumetricMovement class.
Deleted CConfig container.
Deleted COutput class.
-------------------------------------------------------------------------

Completed in 5.967552 seconds on 8 cores.

------------------------- Exit Success (SU2_CFD) ------------------------


-------------------------------------------------------------------------
|    ___ _   _ ___                                                      |
|   / __| | | |_  )   Release 5.0.0  "Raven"                            |
|   \__ \ |_| |/ /                                                      |
|   |___/\___//___|   Suite (Solution Exporting Code)                   |
|                                                                       |
-------------------------------------------------------------------------
| SU2 Original Developers: Dr. Francisco D. Palacios.                   |
|                          Dr. Thomas D. Economon.                      |
-------------------------------------------------------------------------
| SU2 Developers:                                                       |
| - Prof. Juan J. Alonso's group at Stanford University.                |
| - Prof. Piero Colonna's group at Delft University of Technology.      |
| - Prof. Nicolas R. Gauger's group at Kaiserslautern U. of Technology. |
| - Prof. Alberto Guardone's group at Polytechnic University of Milan.  |
| - Prof. Rafael Palacios' group at Imperial College London.            |
| - Prof. Edwin van der Weide's group at the University of Twente.      |
| - Prof. Vincent Terrapon's group at the University of Liege.          |
-------------------------------------------------------------------------
| Copyright (C) 2012-2017 SU2, the open-source CFD code.                |
|                                                                       |
| SU2 is free software; you can redistribute it and/or                  |
| modify it under the terms of the GNU Lesser General Public            |
| License as published by the Free Software Foundation; either          |
| version 2.1 of the License, or (at your option) any later version.    |
|                                                                       |
| SU2 is distributed in the hope that it will be useful,                |
| but WITHOUT ANY WARRANTY; without even the implied warranty of        |
| MERCHANTABILITY or FITNESS FOR A PARTICULAR PURPOSE. See the GNU      |
| Lesser General Public License for more details.                       |
|                                                                       |
| You should have received a copy of the GNU Lesser General Public      |
| License along with SU2. If not, see <http://www.gnu.org/licenses/>.   |
-------------------------------------------------------------------------

------------------------ Physical Case Definition -----------------------
Input mesh file name: mesh_NACA0012_inv_deform.su2

-------------------------- Output Information ---------------------------
The output file format is Tecplot ASCII (.dat).
Flow variables file name: flow.

------------------- Config File Boundary Information --------------------
Euler wall boundary marker(s): airfoil.
Far-field boundary marker(s): farfield.

---------------------- Read Grid File Information -----------------------
Two dimensional problem.
5233 points before parallel partitioning.
Performing linear partitioning of the grid nodes.
10216 interior elements before parallel partitioning.
Calling the partitioning functions.
Building the graph adjacency structure.
Distributing elements across all ranks.
2 surface markers.
200 boundary elements in index 0 (Marker = airfoil).
50 boundary elements in index 1 (Marker = farfield).
Calling ParMETIS...
Finished partitioning using ParMETIS (547 edge cuts).
Communicating partition data and creating halo layers.
10763 interior elements including halo cells. 
10763 triangles.
5796 vertices including ghost points. 
Establishing MPI communication patterns.
Identify vertices.

------------------------- Solution Postprocessing -----------------------
Reading and storing the solution from restart_flow.dat.
Merging connectivities in the Master node.
Merging solution in the Master node.
Writing Tecplot ASCII file (volume grid).
Writing Tecplot ASCII file (surface grid).

Completed in 0.106869 seconds on 8 cores.

------------------------- Exit Success (SU2_SOL) ------------------------

