
-------------------------------------------------------------------------
|    ___ _   _ ___                                                      |
|   / __| | | |_  )   Release 5.0.0  "Raven"                            |
|   \__ \ |_| |/ /                                                      |
|   |___/\___//___|   Suite (Computational Fluid Dynamics Code)         |
|                                                                       |
-------------------------------------------------------------------------
| SU2 Original Developers: Dr. Francisco D. Palacios.                   |
|                          Dr. Thomas D. Economon.                      |
-------------------------------------------------------------------------
| SU2 Developers:                                                       |
| - Prof. Juan J. Alonso's group at Stanford University.                |
| - Prof. Piero Colonna's group at Delft University of Technology.      |
| - Prof. Nicolas R. Gauger's group at Kaiserslautern U. of Technology. |
| - Prof. Alberto Guardone's group at Polytechnic University of Milan.  |
| - Prof. Rafael Palacios' group at Imperial College London.            |
| - Prof. Edwin van der Weide's group at the University of Twente.      |
| - Prof. Vincent Terrapon's group at the University of Liege.          |
-------------------------------------------------------------------------
| Copyright (C) 2012-2017 SU2, the open-source CFD code.                |
|                                                                       |
| SU2 is free software; you can redistribute it and/or                  |
| modify it under the terms of the GNU Lesser General Public            |
| License as published by the Free Software Foundation; either          |
| version 2.1 of the License, or (at your option) any later version.    |
|                                                                       |
| SU2 is distributed in the hope that it will be useful,                |
| but WITHOUT ANY WARRANTY; without even the implied warranty of        |
| MERCHANTABILITY or FITNESS FOR A PARTICULAR PURPOSE. See the GNU      |
| Lesser General Public License for more details.                       |
|                                                                       |
| You should have received a copy of the GNU Lesser General Public      |
| License along with SU2. If not, see <http://www.gnu.org/licenses/>.   |
-------------------------------------------------------------------------

------------------------ Physical Case Definition -----------------------
Compressible Euler equations.
Mach number: 0.8.
Angle of attack (AoA): 1.25 deg, and angle of sideslip (AoS): 0 deg.
Read flow solution from: solution_flow.dat.
Non-Dimensional simulation (P=1.0, Rho=1.0, T=1.0 at the farfield).
The reference length/area (force coefficient) is 1.
The reference length (moment computation) is 1.
Reference origin (moment computation) is (0.25, 0, 0).
Surface(s) where the force coefficients are evaluated: airfoil.
Surface(s) plotted in the output file: airfoil.
Surface(s) affected by the design variables: airfoil.
Input mesh file name: mesh_NACA0012_inv_deform.su2

---------------------- Space Numerical Integration ----------------------
Jameson-Schmidt-Turkel scheme for the flow inviscid terms.
JST viscous coefficients (1st, 2nd & 4th): 0.15, 0.5, 0.02.
The method includes a grid stretching correction (p = 0.3).
Second order integration.
Gradient computation using Green-Gauss theorem.

---------------------- Time Numerical Integration -----------------------
Local time stepping (steady state simulation).
Euler implicit method for the flow equations.
V Multigrid Cycle, with 2 multigrid levels.
Damping factor for the residual restriction: 1.
Damping factor for the correction prolongation: 1.
No CFL adaptation.
Multigrid Level:                       0     1     2
Courant-Friedrichs-Lewy number:       10
MG PreSmooth coefficients:             1     2     3
MG PostSmooth coefficients:            0     0     0
MG CorrecSmooth coefficients:          0     0     0

------------------------- Convergence Criteria --------------------------
Maximum number of iterations: 1000.
Reduce the density residual 6 orders of magnitude.
The minimum bound for the density residual is 10^(-10).
Start convergence criteria at iteration 10.

-------------------------- Output Information ---------------------------
Writing a flow solution every 250 iterations.
Writing the convergence history every 1 iterations.
The output file format is Paraview ASCII (.vtk).
Convergence history file name: history_direct.
Forces breakdown file name: forces_breakdown.dat.
Surface flow coefficients file name: surface_flow.
Flow variables file name: flow.
Restart flow file name: restart_flow.dat.

------------------- Config File Boundary Information --------------------
Euler wall boundary marker(s): airfoil.
Far-field boundary marker(s): farfield.

---------------------- Read Grid File Information -----------------------
Two dimensional problem.
5233 points.
2 surface markers.
200 boundary elements in index 0 (Marker = airfoil).
50 boundary elements in index 1 (Marker = farfield).
10216 triangles.

------------------------- Geometry Preprocessing ------------------------
Setting point connectivity.
Renumbering points (Reverse Cuthill McKee Ordering).
Recomputing point connectivity.
Setting element connectivity.
Checking the numerical grid orientation.
Identifying edges and vertices.
Computing centers of gravity.
Setting the control volume structure.
Area of the computational grid: 1.25e+03.
Searching for the closest normal neighbors to the surfaces.
Compute the surface curvature.
Max K: 7.84e+03. Mean K: 35.7. Standard deviation K: 494.
Checking for periodicity.
Setting the multigrid structure.
MG level: 0 -> CVs: 5233. Agglomeration rate 1/1.00. CFL 10.
MG level: 1 -> CVs: 1533. Agglomeration rate 1/3.41. CFL 8.12.
MG level: 2 -> CVs: 443. Agglomeration rate 1/3.46. CFL 6.55.
Computing wall distances.
Wetted area = 2.03 m.
Area projection in the x-plane = 0.107 m, y-plane = 1 m.

------------------------- Driver information --------------------------
A Fluid driver has been instantiated.

------------------------ Iteration Preprocessing ------------------------
Zone 1: Euler/Navier-Stokes/RANS flow iteration.

------------------------- Solver Preprocessing --------------------------
Inviscid flow: Computing density based on free-stream
temperature and pressure using the ideal gas law.
Force coefficients computed using free-stream values.
-- Input conditions:
Fluid Model: STANDARD_AIR 
Specific gas constant: 287.058 N.m/kg.K.
Specific gas constant (non-dim): 1
Specific Heat Ratio: 1.4
Free-stream static pressure: 101325 Pa.
Free-stream total pressure: 154454 Pa.
Free-stream temperature: 288.15 K.
Free-stream density: 1.22498 kg/m^3.
Free-stream velocity: (272.173, 5.93883) m/s. Magnitude: 272.238 m/s (529.186 KTS).
Free-stream total energy per unit mass: 243846 m^2/s^2.
-- Reference values:
Reference specific gas constant: 287.058 N.m/kg.K.
Reference pressure: 101325 Pa.
Reference temperature: 288.15 K.
Reference density: 1.22498 kg/m^3.
Reference velocity: 287.603 m/s.
Reference energy per unit mass: 82715.8 m^2/s^2.
-- Resulting non-dimensional state:
Mach number (non-dim): 0.8
Specific gas constant (non-dim): 1
Free-stream temperature (non-dim): 1
Free-stream pressure (non-dim): 1
Free-stream density (non-dim): 1
Free-stream velocity (non-dim): (0.946348, 0.0206494). Magnitude: 0.946573
Free-stream total energy per unit mass (non-dim): 2.948

Initialize Jacobian structure (Euler). MG level: 0.
Initialize Jacobian structure (Euler). MG level: 1.
Initialize Jacobian structure (Euler). MG level: 2.

----------------- Integration and Numerics Preprocessing ----------------
Integration Preprocessing.
Numerics Preprocessing.

------------------------------ Begin Solver -----------------------------

---------------------- Local Time Stepping Summary ----------------------
MG level: 0 -> Min. DT: 0.000497805. Max. DT: 3.62867. CFL: 10.
MG level: 1 -> Min. DT: 0.000784443. Max. DT: 5.54685. CFL: 8.11871.
MG level: 2 -> Min. DT: 0.00104891. Max. DT: 7.41456. CFL: 6.5465.
-------------------------------------------------------------------------

----------------------- Residual Evolution Summary ----------------------
log10[Maximum residual]: -5.58973.
Maximum residual point 105, located at (0.00752, 0.0115658).
-------------------------------------------------------------------------

 Iter    Time(s)     Res[Rho]     Res[RhoE]      CL(Total)      CD(Total)
 3063   0.058681    -6.692083     -6.095704       0.065592       0.000351
 3064   0.054429    -6.755596     -6.153076       0.065619       0.000386
 3065   0.059263    -6.770520     -6.173567       0.065642       0.000398
 3066   0.056883    -6.739626     -6.138988       0.065670       0.000409
 3067   0.055452    -6.683838     -6.081203       0.065699       0.000419
 3068   0.054503    -6.650073     -6.049257       0.065730       0.000426
 3069   0.053864    -6.634970     -6.036701       0.065763       0.000431
 3070   0.053290    -6.623790     -6.026788       0.065793       0.000435
 3071   0.052833    -6.615473     -6.019241       0.065821       0.000437
 3072   0.052674    -6.605891     -6.009444       0.065846       0.000440
 3073   0.052957    -6.596739     -5.999676       0.065868       0.000443
 3074   0.052950    -6.596729     -5.999865       0.065890       0.000444
 3075   0.052703    -6.605123     -6.008845       0.065909       0.000446
 3076   0.052461    -6.619701     -6.023959       0.065928       0.000447
 3077   0.052270    -6.638368     -6.042709       0.065945       0.000448
 3078   0.052261    -6.658857     -6.062289       0.065961       0.000449
 3079   0.052047    -6.679000     -6.080143       0.065977       0.000450
 3080   0.051862    -6.697898     -6.095558       0.065991       0.000451
 3081   0.051924    -6.717116     -6.110993       0.066005       0.000452
 3082   0.051822    -6.740200     -6.131171       0.066018       0.000453
 3083   0.051687    -6.771321     -6.161313       0.066031       0.000454
 3084   0.051590    -6.812605     -6.204290       0.066044       0.000455
 3085   0.051488    -6.860897     -6.257056       0.066056       0.000455
 3086   0.051451    -6.909056     -6.311630       0.066068       0.000456
 3087   0.051425    -6.950061     -6.359393       0.066079       0.000456
 3088   0.051381    -6.981342     -6.396588       0.066089       0.000456
 3089   0.051279    -7.003340     -6.423285       0.066098       0.000456
 3090   0.051216    -7.017988     -6.441674       0.066107       0.000456
 3091   0.051175    -7.027129     -6.453848       0.066114       0.000455
 3092   0.051154    -7.032875     -6.462066       0.066121       0.000455
 3093   0.051123    -7.036204     -6.467052       0.066128       0.000455
 3094   0.051053    -7.038264     -6.469923       0.066134       0.000454
 3095   0.050973    -7.041086     -6.473213       0.066140       0.000454
 3096   0.050903    -7.045572     -6.478174       0.066145       0.000454
 3097   0.050828    -7.051619     -6.484788       0.066150       0.000454
 3098   0.050757    -7.059714     -6.493724       0.066155       0.000454
 3099   0.050689    -7.070919     -6.506352       0.066160       0.000454
 3100   0.050650    -7.086286     -6.524075       0.066164       0.000454
 3101   0.050688    -7.106647     -6.548139       0.066169       0.000453
 3102   0.050771    -7.131949     -6.578801       0.066173       0.000453

---------------------- Local Time Stepping Summary ----------------------
MG level: 0 -> Min. DT: 0.000497807. Max. DT: 3.62867. CFL: 10.
MG level: 1 -> Min. DT: 0.000784438. Max. DT: 5.54684. CFL: 8.11871.
MG level: 2 -> Min. DT: 0.00104891. Max. DT: 7.41455. CFL: 6.5465.
-------------------------------------------------------------------------

----------------------- Residual Evolution Summary ----------------------
log10[Maximum residual]: -6.11871.
Maximum residual point 1906, located at (0.603236, 0.284612).
-------------------------------------------------------------------------

 Iter    Time(s)     Res[Rho]     Res[RhoE]      CL(Total)      CD(Total)
 3103   0.050737    -7.160963     -6.614779       0.066177       0.000453
 3104   0.050724    -7.191401     -6.653096       0.066181       0.000453
 3105   0.050666    -7.220443     -6.689621       0.066185       0.000452
 3106   0.050643    -7.245386     -6.720440       0.066188       0.000452
 3107   0.050611    -7.263213     -6.741670       0.066192       0.000452
 3108   0.050583    -7.270848     -6.748933       0.066195       0.000452
 3109   0.050558    -7.272271     -6.747793       0.066197       0.000452
 3110   0.050519    -7.274326     -6.748217       0.066200       0.000452
 3111   0.050514    -7.279114     -6.752914       0.066202       0.000452
 3112   0.050486    -7.286062     -6.760647       0.066204       0.000452
 3113   0.050554    -7.289018     -6.762151       0.066205       0.000452
 3114   0.050597    -7.281148     -6.749152       0.066207       0.000452
 3115   0.050612    -7.275746     -6.740951       0.066208       0.000452
 3116   0.050626    -7.272699     -6.736104       0.066210       0.000452
 3117   0.050596    -7.272112     -6.734091       0.066211       0.000452
 3118   0.050580    -7.275147     -6.736689       0.066212       0.000452
 3119   0.050535    -7.280469     -6.742161       0.066212       0.000452
 3120   0.050500    -7.287546     -6.749754       0.066213       0.000452
 3121   0.050504    -7.296061     -6.759065       0.066214       0.000452
 3122   0.050522    -7.305976     -6.770085       0.066214       0.000452
 3123   0.050496    -7.317464     -6.783080       0.066215       0.000452
 3124   0.050491    -7.330690     -6.798269       0.066215       0.000452
 3125   0.050473    -7.345738     -6.815741       0.066215       0.000452
 3126   0.050448    -7.362609     -6.835474       0.066215       0.000452
 3127   0.050433    -7.381107     -6.857231       0.066215       0.000452
 3128   0.050445    -7.400728     -6.880369       0.066216       0.000452
 3129   0.050706    -7.420596     -6.903705       0.066216       0.000452
 3130   0.050946    -7.439494     -6.925522       0.066216       0.000452
 3131   0.051069    -7.455742     -6.943329       0.066216       0.000452
 3132   0.051237    -7.466144     -6.952670       0.066216       0.000452
 3133   0.051293    -7.476720     -6.964507       0.066216       0.000452
 3134   0.051340    -7.480449     -6.964726       0.066216       0.000452
 3135   0.051413    -7.472306     -6.950110       0.066216       0.000452
 3136   0.051475    -7.471465     -6.946388       0.066216       0.000452
 3137   0.051457    -7.483156     -6.958999       0.066216       0.000452
 3138   0.051413    -7.491406     -6.965903       0.066216       0.000452
 3139   0.051426    -7.503153     -6.977293       0.066216       0.000452
 3140   0.051420    -7.515454     -6.989550       0.066217       0.000452
 3141   0.051380    -7.527810     -7.001750       0.066217       0.000452
 3142   0.051342    -7.539812     -7.013226       0.066217       0.000452

---------------------- Local Time Stepping Summary ----------------------
MG level: 0 -> Min. DT: 0.000497807. Max. DT: 3.62867. CFL: 10.
MG level: 1 -> Min. DT: 0.000784441. Max. DT: 5.54684. CFL: 8.11871.
MG level: 2 -> Min. DT: 0.00104892. Max. DT: 7.41455. CFL: 6.5465.
-------------------------------------------------------------------------

----------------------- Residual Evolution Summary ----------------------
log10[Maximum residual]: -6.38615.
Maximum residual point 1183, located at (0.596859, 0.131522).
-------------------------------------------------------------------------

 Iter    Time(s)     Res[Rho]     Res[RhoE]      CL(Total)      CD(Total)
 3143   0.051321    -7.550940     -7.023410       0.066217       0.000452
 3144   0.051305    -7.561937     -7.033496       0.066218       0.000452
 3145   0.051284    -7.573571     -7.044568       0.066218       0.000452
 3146   0.051271    -7.586586     -7.057575       0.066218       0.000452
 3147   0.051279    -7.601317     -7.072908       0.066219       0.000452
 3148   0.051250    -7.617802     -7.090584       0.066219       0.000452
 3149   0.051236    -7.635910     -7.110426       0.066219       0.000452
 3150   0.051251    -7.655508     -7.132243       0.066220       0.000452
 3151   0.051223    -7.676453     -7.155829       0.066220       0.000452
 3152   0.051242    -7.698525     -7.180856       0.066221       0.000452
 3153   0.051275    -7.721400     -7.206838       0.066221       0.000452
 3154   0.051247    -7.744544     -7.232978       0.066221       0.000452
 3155   0.051247    -7.766951     -7.257770       0.066222       0.000452
 3156   0.051222    -7.786222     -7.277678       0.066222       0.000452
 3157   0.051205    -7.797579     -7.286200       0.066223       0.000452
 3158   0.051191    -7.805231     -7.290432       0.066223       0.000452
 3159   0.051227    -7.816701     -7.301240       0.066223       0.000452
 3160   0.051250    -7.832381     -7.318891       0.066223       0.000452
 3161   0.051230    -7.851574     -7.340720       0.066224       0.000452
 3162   0.051209    -7.870253     -7.360304       0.066224       0.000452
 3163   0.051190    -7.886466     -7.375265       0.066224       0.000452
 3164   0.051186    -7.900833     -7.387412       0.066224       0.000452
 3165   0.051168    -7.915585     -7.400377       0.066225       0.000452
 3166   0.051149    -7.931515     -7.415234       0.066225       0.000452
 3167   0.051143    -7.949041     -7.432375       0.066225       0.000452
 3168   0.051139    -7.968020     -7.451417       0.066225       0.000452
 3169   0.051131    -7.987636     -7.471122       0.066225       0.000452
 3170   0.051109    -8.007015     -7.490278       0.066225       0.000452
 3171   0.051092    -8.025570     -7.508173       0.066225       0.000452
 3172   0.051068    -8.043319     -7.524985       0.066225       0.000452
 3173   0.051079    -8.060866     -7.541666       0.066225       0.000452
 3174   0.051058    -8.079046     -7.559411       0.066225       0.000452
 3175   0.051040    -8.098622     -7.579225       0.066225       0.000452
 3176   0.051019    -8.120072     -7.601677       0.066225       0.000452
 3177   0.051008    -8.143537     -7.626849       0.066225       0.000452
 3178   0.050988    -8.168882     -7.654450       0.066225       0.000452
 3179   0.050992    -8.195791     -7.683966       0.066225       0.000452
 3180   0.050999    -8.223878     -7.714811       0.066225       0.000452
 3181   0.051014    -8.252763     -7.746437       0.066225       0.000452
 3182   0.050993    -8.282121     -7.778391       0.066225       0.000452

---------------------- Local Time Stepping Summary ----------------------
MG level: 0 -> Min. DT: 0.000497806. Max. DT: 3.62867. CFL: 10.
MG level: 1 -> Min. DT: 0.000784441. Max. DT: 5.54684. CFL: 8.11871.
MG level: 2 -> Min. DT: 0.00104892. Max. DT: 7.41455. CFL: 6.5465.
-------------------------------------------------------------------------

----------------------- Residual Evolution Summary ----------------------
log10[Maximum residual]: -7.06266.
Maximum residual point 407, located at (0.551933, 0.0591023).
-------------------------------------------------------------------------

 Iter    Time(s)     Res[Rho]     Res[RhoE]      CL(Total)      CD(Total)
 3183   0.050970    -8.311679     -7.810300       0.066225       0.000452
 3184   0.050953    -8.341194     -7.841837       0.066225       0.000452
 3185   0.050939    -8.370495     -7.872795       0.066225       0.000452
 3186   0.050938    -8.399615     -7.903282       0.066225       0.000452
 3187   0.050959    -8.428857     -7.933806       0.066225       0.000452
 3188   0.050938    -8.458652     -7.965015       0.066225       0.000452
 3189   0.050930    -8.489162     -7.997064       0.066225       0.000452
 3190   0.050910    -8.519305     -8.028119       0.066225       0.000452
 3191   0.050944    -8.536965     -8.040558       0.066225       0.000452
 3192   0.051139    -8.555715     -8.057211       0.066225       0.000452
 3193   0.051145    -8.520030     -7.999470       0.066225       0.000452
 3194   0.051130    -8.557212     -8.049195       0.066225       0.000452
 3195   0.051109    -8.555777     -8.042541       0.066225       0.000452
 3196   0.051086    -8.569728     -8.052381       0.066225       0.000452
 3197   0.051069    -8.587728     -8.067603       0.066225       0.000452
 3198   0.051077    -8.606405     -8.084705       0.066225       0.000452
 3199   0.051110    -8.630050     -8.109283       0.066225       0.000452
 3200   0.051126    -8.657985     -8.139815       0.066225       0.000452
 3201   0.051113    -8.688719     -8.173859       0.066225       0.000452
 3202   0.051100    -8.720426     -8.208670       0.066225       0.000452
 3203   0.051088    -8.751145     -8.241552       0.066225       0.000452
 3204   0.051089    -8.781890     -8.274331       0.066225       0.000452
 3205   0.051077    -8.814339     -8.309621       0.066225       0.000452
 3206   0.051069    -8.849069     -8.348161       0.066225       0.000452
 3207   0.051056    -8.885554     -8.388945       0.066225       0.000452
 3208   0.051060    -8.921912     -8.428990       0.066225       0.000452
 3209   0.051046    -8.953297     -8.461286       0.066225       0.000452
 3210   0.051051    -8.976436     -8.481445       0.066225       0.000452
 3211   0.051056    -8.996555     -8.497447       0.066225       0.000452
 3212   0.051046    -9.011130     -8.506396       0.066226       0.000452
 3213   0.051030    -9.021807     -8.511169       0.066226       0.000452
 3214   0.051017    -9.033195     -8.518148       0.066226       0.000452
 3215   0.051015    -9.045898     -8.527689       0.066226       0.000452
 3216   0.051004    -9.060394     -8.539995       0.066226       0.000452
 3217   0.050987    -9.075548     -8.553185       0.066226       0.000452
 3218   0.050987    -9.089874     -8.565156       0.066226       0.000452
 3219   0.050993    -9.102073     -8.574281       0.066226       0.000452
 3220   0.050989    -9.111829     -8.580373       0.066226       0.000452
 3221   0.050971    -9.119818     -8.584515       0.066226       0.000452
 3222   0.050965    -9.127113     -8.588168       0.066226       0.000452

---------------------- Local Time Stepping Summary ----------------------
MG level: 0 -> Min. DT: 0.000497806. Max. DT: 3.62867. CFL: 10.
MG level: 1 -> Min. DT: 0.000784442. Max. DT: 5.54684. CFL: 8.11871.
MG level: 2 -> Min. DT: 0.00104892. Max. DT: 7.41455. CFL: 6.5465.
-------------------------------------------------------------------------

----------------------- Residual Evolution Summary ----------------------
log10[Maximum residual]: -7.91454.
Maximum residual point 362, located at (0.488642, 0.0611304).
-------------------------------------------------------------------------

 Iter    Time(s)     Res[Rho]     Res[RhoE]      CL(Total)      CD(Total)
 3223   0.050963    -9.134676     -8.592519       0.066226       0.000452
 3224   0.050952    -9.143098     -8.598219       0.066226       0.000452
 3225   0.050939    -9.152589     -8.605428       0.066226       0.000452
 3226   0.050941    -9.163071     -8.613972       0.066226       0.000452
 3227   0.051004    -9.174326     -8.623539       0.066226       0.000452
 3228   0.051101    -9.186125     -8.633837       0.066226       0.000452
 3229   0.051206    -9.198315     -8.644677       0.066226       0.000452
 3230   0.051264    -9.210822     -8.655974       0.066225       0.000452
 3231   0.051293    -9.223624     -8.667703       0.066225       0.000452
 3232   0.051299    -9.236711     -8.679849       0.066225       0.000452
 3233   0.051303    -9.250068     -8.692385       0.066225       0.000452
 3234   0.051308    -9.263668     -8.705275       0.066225       0.000452
 3235   0.051306    -9.277489     -8.718486       0.066225       0.000452
 3236   0.051293    -9.291513     -8.731999       0.066225       0.000452
 3237   0.051307    -9.305736     -8.745809       0.066225       0.000452
 3238   0.051303    -9.320156     -8.759917       0.066225       0.000452
 3239   0.051304    -9.334768     -8.774318       0.066225       0.000452
 3240   0.051297    -9.349560     -8.788993       0.066225       0.000452
 3241   0.051283    -9.364507     -8.803909       0.066225       0.000452
 3242   0.051273    -9.379578     -8.819025       0.066225       0.000452
 3243   0.051256    -9.394739     -8.834293       0.066225       0.000452
 3244   0.051259    -9.409962     -8.849673       0.066225       0.000452
 3245   0.051245    -9.425222     -8.865131       0.066225       0.000452
 3246   0.051232    -9.440506     -8.880647       0.066225       0.000452
 3247   0.051222    -9.455809     -8.896212       0.066225       0.000452
 3248   0.051211    -9.471133     -8.911829       0.066225       0.000452
 3249   0.051205    -9.486488     -8.927509       0.066225       0.000452
 3250   0.051207    -9.501891     -8.943272       0.066225       0.000452
 3251   0.051196    -9.517360     -8.959141       0.066225       0.000452
 3252   0.051190    -9.532917     -8.975143       0.066225       0.000452
 3253   0.051176    -9.548586     -8.991307       0.066225       0.000452
 3254   0.051168    -9.564387     -9.007661       0.066225       0.000452
 3255   0.051152    -9.580341     -9.024229       0.066225       0.000452
 3256   0.051137    -9.596464     -9.041032       0.066225       0.000452
 3257   0.051146    -9.612769     -9.058085       0.066225       0.000452
 3258   0.051152    -9.629263     -9.075397       0.066225       0.000452
 3259   0.051141    -9.645949     -9.092972       0.066225       0.000452
 3260   0.051128    -9.662826     -9.110806       0.066225       0.000452
 3261   0.051115    -9.679885     -9.128889       0.066225       0.000452
 3262   0.051103    -9.697116     -9.147205       0.066225       0.000452

---------------------- Local Time Stepping Summary ----------------------
MG level: 0 -> Min. DT: 0.000497806. Max. DT: 3.62867. CFL: 10.
MG level: 1 -> Min. DT: 0.000784442. Max. DT: 5.54684. CFL: 8.11871.
MG level: 2 -> Min. DT: 0.00104892. Max. DT: 7.41455. CFL: 6.5465.
-------------------------------------------------------------------------

----------------------- Residual Evolution Summary ----------------------
log10[Maximum residual]: -8.578.
Maximum residual point 436, located at (0.363661, 0.0609903).
-------------------------------------------------------------------------

 Iter    Time(s)     Res[Rho]     Res[RhoE]      CL(Total)      CD(Total)
 3263   0.051091    -9.714501     -9.165732       0.066225       0.000452
 3264   0.051079    -9.732023     -9.184443       0.066225       0.000452
 3265   0.051084    -9.749656     -9.203308       0.066225       0.000452
 3266   0.051072    -9.767374     -9.222290       0.066225       0.000452
 3267   0.051086    -9.785147     -9.241348       0.066225       0.000452
 3268   0.051088    -9.802942     -9.260441       0.066225       0.000452
 3269   0.051081    -9.820727     -9.279523       0.066225       0.000452
 3270   0.051099    -9.838463     -9.298545       0.066225       0.000452
 3271   0.051098    -9.856112     -9.317457       0.066225       0.000452
 3272   0.051088    -9.873635     -9.336209       0.066225       0.000452
 3273   0.051079    -9.890992     -9.354747       0.066225       0.000452
 3274   0.051069    -9.908142     -9.373022       0.066225       0.000452
 3275   0.051059    -9.925044     -9.390981       0.066225       0.000452
 3276   0.051052    -9.941659     -9.408576       0.066225       0.000452
 3277   0.051057    -9.957952     -9.425765       0.066225       0.000452
 3278   0.051060    -9.973890     -9.442508       0.066225       0.000452
 3279   0.051053    -9.989448     -9.458777       0.066225       0.000452
 3280   0.051044   -10.004609     -9.474553       0.066225       0.000452

-------------------------- File Output Summary --------------------------
Writing comma-separated values (CSV) surface files.
Merging connectivities in the Master node.
Merging coordinates in the Master node.
Merging solution in the Master node.
Writing SU2 native restart file.
Writing Paraview ASCII volume solution file.
Writing Paraview ASCII surface solution file.
Writing the forces breakdown file.
-------------------------------------------------------------------------

History file, closed.

------------------------- Solver Postprocessing -------------------------
Deleted CNumerics container.
Deleted CIntegration container.
Deleted CSolver container.
Deleted CIteration container.
Deleted CInterpolator container.
Deleted CTransfer container.
Deleted CGeometry container.
Deleted CFreeFormDefBox class.
Deleted CSurfaceMovement class.
Deleted CVolumetricMovement class.
Deleted CConfig container.
Deleted COutput class.
-------------------------------------------------------------------------

Completed in 11.214423 seconds on 1 core.

------------------------- Exit Success (SU2_CFD) ------------------------

