
-------------------------------------------------------------------------
|    ___ _   _ ___                                                      |
|   / __| | | |_  )   Release 5.0.0  "Raven"                            |
|   \__ \ |_| |/ /                                                      |
|   |___/\___//___|   Suite (Computational Fluid Dynamics Code)         |
|                                                                       |
-------------------------------------------------------------------------
| SU2 Original Developers: Dr. Francisco D. Palacios.                   |
|                          Dr. Thomas D. Economon.                      |
-------------------------------------------------------------------------
| SU2 Developers:                                                       |
| - Prof. Juan J. Alonso's group at Stanford University.                |
| - Prof. Piero Colonna's group at Delft University of Technology.      |
| - Prof. Nicolas R. Gauger's group at Kaiserslautern U. of Technology. |
| - Prof. Alberto Guardone's group at Polytechnic University of Milan.  |
| - Prof. Rafael Palacios' group at Imperial College London.            |
| - Prof. Edwin van der Weide's group at the University of Twente.      |
| - Prof. Vincent Terrapon's group at the University of Liege.          |
-------------------------------------------------------------------------
| Copyright (C) 2012-2017 SU2, the open-source CFD code.                |
|                                                                       |
| SU2 is free software; you can redistribute it and/or                  |
| modify it under the terms of the GNU Lesser General Public            |
| License as published by the Free Software Foundation; either          |
| version 2.1 of the License, or (at your option) any later version.    |
|                                                                       |
| SU2 is distributed in the hope that it will be useful,                |
| but WITHOUT ANY WARRANTY; without even the implied warranty of        |
| MERCHANTABILITY or FITNESS FOR A PARTICULAR PURPOSE. See the GNU      |
| Lesser General Public License for more details.                       |
|                                                                       |
| You should have received a copy of the GNU Lesser General Public      |
| License along with SU2. If not, see <http://www.gnu.org/licenses/>.   |
-------------------------------------------------------------------------

------------------------ Physical Case Definition -----------------------
Compressible Euler equations.
Mach number: 0.8.
Angle of attack (AoA): 1.25 deg, and angle of sideslip (AoS): 0 deg.
Read flow solution from: solution_flow.dat.
Non-Dimensional simulation (P=1.0, Rho=1.0, T=1.0 at the farfield).
The reference length/area (force coefficient) is 1.
The reference length (moment computation) is 1.
Reference origin (moment computation) is (0.25, 0, 0).
Surface(s) where the force coefficients are evaluated: airfoil.
Surface(s) plotted in the output file: airfoil.
Surface(s) affected by the design variables: airfoil.
Input mesh file name: mesh_NACA0012_inv_deform.su2

---------------------- Space Numerical Integration ----------------------
Jameson-Schmidt-Turkel scheme for the flow inviscid terms.
JST viscous coefficients (1st, 2nd & 4th): 0.15, 0.5, 0.02.
The method includes a grid stretching correction (p = 0.3).
Second order integration.
Gradient computation using Green-Gauss theorem.

---------------------- Time Numerical Integration -----------------------
Local time stepping (steady state simulation).
Euler implicit method for the flow equations.
V Multigrid Cycle, with 2 multigrid levels.
Damping factor for the residual restriction: 1.
Damping factor for the correction prolongation: 1.
No CFL adaptation.
Multigrid Level:                       0     1     2
Courant-Friedrichs-Lewy number:       10
MG PreSmooth coefficients:             1     2     3
MG PostSmooth coefficients:            0     0     0
MG CorrecSmooth coefficients:          0     0     0

------------------------- Convergence Criteria --------------------------
Maximum number of iterations: 1000.
Reduce the density residual 6 orders of magnitude.
The minimum bound for the density residual is 10^(-13).
Start convergence criteria at iteration 10.

-------------------------- Output Information ---------------------------
Writing a flow solution every 250 iterations.
Writing the convergence history every 1 iterations.
The output file format is Tecplot ASCII (.dat).
Convergence history file name: history_direct.
Forces breakdown file name: forces_breakdown.dat.
Surface flow coefficients file name: surface_flow.
Flow variables file name: flow.
Restart flow file name: restart_flow.dat.

------------------- Config File Boundary Information --------------------
Euler wall boundary marker(s): airfoil.
Far-field boundary marker(s): farfield.

---------------------- Read Grid File Information -----------------------
Two dimensional problem.
5233 points before parallel partitioning.
Performing linear partitioning of the grid nodes.
10216 interior elements before parallel partitioning.
Calling the partitioning functions.
Building the graph adjacency structure.
Distributing elements across all ranks.
2 surface markers.
200 boundary elements in index 0 (Marker = airfoil).
50 boundary elements in index 1 (Marker = farfield).
Calling ParMETIS...
Finished partitioning using ParMETIS (547 edge cuts).
Communicating partition data and creating halo layers.
10763 interior elements including halo cells. 
10763 triangles.
5796 vertices including ghost points. 
Establishing MPI communication patterns.

------------------------- Geometry Preprocessing ------------------------
Setting point connectivity.
Renumbering points (Reverse Cuthill McKee Ordering).
Recomputing point connectivity.
Setting element connectivity.
Checking the numerical grid orientation.
Identifying edges and vertices.
Computing centers of gravity.
Setting the control volume structure.
Area of the computational grid: 1.3e+03.
Searching for the closest normal neighbors to the surfaces.
Compute the surface curvature.
Max K: 7.84e+03. Mean K: 35.6. Standard deviation K: 494.
Checking for periodicity.
Setting the multigrid structure.
MG level: 0 -> CVs: 5796. Agglomeration rate 1/1.00. CFL 10.
MG level: 1 -> CVs: 1800. Agglomeration rate 1/3.22. CFL 8.36.
MG level: 2 -> CVs: 626. Agglomeration rate 1/2.88. CFL 7.39.
Computing wall distances.
Wetted area = 2.03 m.
Area projection in the x-plane = 0.107 m, y-plane = 1 m.

------------------------- Driver information --------------------------
A Fluid driver has been instantiated.

------------------------ Iteration Preprocessing ------------------------
Zone 1: Euler/Navier-Stokes/RANS flow iteration.

------------------------- Solver Preprocessing --------------------------
Inviscid flow: Computing density based on free-stream
temperature and pressure using the ideal gas law.
Force coefficients computed using free-stream values.
-- Input conditions:
Fluid Model: STANDARD_AIR 
Specific gas constant: 287.058 N.m/kg.K.
Specific gas constant (non-dim): 1
Specific Heat Ratio: 1.4
Free-stream static pressure: 101325 Pa.
Free-stream total pressure: 154454 Pa.
Free-stream temperature: 288.15 K.
Free-stream density: 1.22498 kg/m^3.
Free-stream velocity: (272.173, 5.93883) m/s. Magnitude: 272.238 m/s (529.186 KTS).
Free-stream total energy per unit mass: 243846 m^2/s^2.
-- Reference values:
Reference specific gas constant: 287.058 N.m/kg.K.
Reference pressure: 101325 Pa.
Reference temperature: 288.15 K.
Reference density: 1.22498 kg/m^3.
Reference velocity: 287.603 m/s.
Reference energy per unit mass: 82715.8 m^2/s^2.
-- Resulting non-dimensional state:
Mach number (non-dim): 0.8
Specific gas constant (non-dim): 1
Free-stream temperature (non-dim): 1
Free-stream pressure (non-dim): 1
Free-stream density (non-dim): 1
Free-stream velocity (non-dim): (0.946348, 0.0206494). Magnitude: 0.946573
Free-stream total energy per unit mass (non-dim): 2.948

Initialize Jacobian structure (Euler). MG level: 0.
Initialize Jacobian structure (Euler). MG level: 1.
Initialize Jacobian structure (Euler). MG level: 2.

----------------- Integration and Numerics Preprocessing ----------------
Integration Preprocessing.
Numerics Preprocessing.

------------------------------ Begin Solver -----------------------------

---------------------- Local Time Stepping Summary ----------------------
MG level: 0 -> Min. DT: 0.000497739. Max. DT: 3.62867. CFL: 10.
MG level: 1 -> Min. DT: 0.000799704. Max. DT: 5.71108. CFL: 8.35917.
MG level: 2 -> Min. DT: 0.00155912. Max. DT: 8.31064. CFL: 7.39444.
-------------------------------------------------------------------------

----------------------- Residual Evolution Summary ----------------------
log10[Maximum residual]: -4.24079.
Maximum residual point 148, located at (0.48027, 0.0469489).
-------------------------------------------------------------------------

 Iter    Time(s)     Res[Rho]     Res[RhoE]      CL(Total)      CD(Total)
 2091   0.015857    -5.392048     -4.795668       0.074808       0.000767
 2092   0.015046    -5.461931     -4.861027       0.075442       0.000709
 2093   0.015047    -5.497515     -4.904297       0.075779       0.000762
 2094   0.014786    -5.527254     -4.935627       0.076014       0.000773
 2095   0.014798    -5.489932     -4.900021       0.076321       0.000770
 2096   0.014785    -5.447094     -4.857531       0.076561       0.000765
 2097   0.014739    -5.409223     -4.819255       0.076772       0.000756
 2098   0.014724    -5.379263     -4.788831       0.076962       0.000745
 2099   0.014679    -5.356851     -4.766163       0.077133       0.000734
 2100   0.014650    -5.342338     -4.751866       0.077283       0.000724
 2101   0.014680    -5.337247     -4.747761       0.077414       0.000717
 2102   0.014755    -5.345035     -4.757903       0.077530       0.000710
 2103   0.014807    -5.373835     -4.792208       0.077634       0.000698
 2104   0.014967    -5.422999     -4.851249       0.077758       0.000676
 2105   0.014972    -5.429285     -4.858661       0.077887       0.000659
 2106   0.014936    -5.426681     -4.855468       0.077994       0.000646
 2107   0.015042    -5.449452     -4.882760       0.078097       0.000631
 2108   0.015369    -5.460125     -4.894674       0.078204       0.000617
 2109   0.015563    -5.467591     -4.901833       0.078317       0.000606
 2110   0.015661    -5.485123     -4.921664       0.078439       0.000597
 2111   0.015596    -5.507624     -4.948371       0.078567       0.000591
 2112   0.015606    -5.535299     -4.982515       0.078699       0.000588
 2113   0.015634    -5.571382     -5.028567       0.078829       0.000586
 2114   0.015602    -5.613191     -5.082396       0.078946       0.000583
 2115   0.015556    -5.633942     -5.106936       0.079036       0.000576
 2116   0.015505    -5.618560     -5.085168       0.079098       0.000568
 2117   0.015473    -5.590133     -5.049110       0.079142       0.000560
 2118   0.015423    -5.572000     -5.027895       0.079173       0.000550
 2119   0.015392    -5.557998     -5.011828       0.079196       0.000541
 2120   0.015361    -5.553724     -5.007577       0.079213       0.000532
 2121   0.015354    -5.551915     -5.005911       0.079225       0.000524
 2122   0.015351    -5.549312     -5.002895       0.079233       0.000518
 2123   0.015359    -5.543877     -4.996216       0.079238       0.000512
 2124   0.015438    -5.536399     -4.987079       0.079240       0.000508
 2125   0.015644    -5.528641     -4.977794       0.079241       0.000504
 2126   0.015682    -5.522090     -4.970184       0.079240       0.000501
 2127   0.015653    -5.517412     -4.964991       0.079238       0.000499
 2128   0.015623    -5.514742     -4.962298       0.079235       0.000497
 2129   0.015591    -5.513995     -4.961939       0.079231       0.000495
 2130   0.015567    -5.515118     -4.963818       0.079227       0.000493

---------------------- Local Time Stepping Summary ----------------------
MG level: 0 -> Min. DT: 0.000497773. Max. DT: 3.62867. CFL: 10.
MG level: 1 -> Min. DT: 0.000799737. Max. DT: 5.71103. CFL: 8.35917.
MG level: 2 -> Min. DT: 0.00155926. Max. DT: 8.31059. CFL: 7.39444.
-------------------------------------------------------------------------

----------------------- Residual Evolution Summary ----------------------
log10[Maximum residual]: -4.50143.
Maximum residual point 1353, located at (0.353592, 0.156679).
-------------------------------------------------------------------------

 Iter    Time(s)     Res[Rho]     Res[RhoE]      CL(Total)      CD(Total)
 2131   0.015534    -5.518136     -4.967941       0.079223       0.000492
 2132   0.015497    -5.523056     -4.974304       0.079219       0.000492
 2133   0.015475    -5.529786     -4.982771       0.079216       0.000491
 2134   0.015474    -5.538264     -4.993257       0.079213       0.000491
 2135   0.015462    -5.548470     -5.005736       0.079212       0.000491
 2136   0.015490    -5.560376     -5.020159       0.079212       0.000492
 2137   0.015473    -5.574001     -5.036544       0.079212       0.000493
 2138   0.015461    -5.589221     -5.054721       0.079214       0.000494
 2139   0.015436    -5.606191     -5.074871       0.079217       0.000495
 2140   0.015547    -5.624871     -5.096908       0.079221       0.000496
 2141   0.015585    -5.645028     -5.120489       0.079225       0.000498
 2142   0.015561    -5.666026     -5.144720       0.079230       0.000500
 2143   0.015544    -5.685976     -5.167095       0.079235       0.000502
 2144   0.015525    -5.699650     -5.180521       0.079238       0.000504
 2145   0.015545    -5.699695     -5.175878       0.079242       0.000506
 2146   0.015533    -5.684631     -5.153274       0.079249       0.000507
 2147   0.015531    -5.660375     -5.121755       0.079261       0.000507
 2148   0.015521    -5.638233     -5.095250       0.079276       0.000507
 2149   0.015498    -5.623358     -5.078908       0.079295       0.000507
 2150   0.015476    -5.618855     -5.075563       0.079317       0.000507
 2151   0.015468    -5.624622     -5.084189       0.079340       0.000507
 2152   0.015445    -5.633723     -5.095209       0.079357       0.000506
 2153   0.015440    -5.632067     -5.091284       0.079373       0.000506
 2154   0.015422    -5.637021     -5.096595       0.079392       0.000507
 2155   0.015418    -5.659344     -5.124804       0.079409       0.000509
 2156   0.015425    -5.675768     -5.143539       0.079423       0.000511
 2157   0.015410    -5.698108     -5.169523       0.079437       0.000513
 2158   0.015408    -5.722907     -5.198917       0.079448       0.000515
 2159   0.015393    -5.732641     -5.206833       0.079457       0.000517
 2160   0.015380    -5.753853     -5.231558       0.079467       0.000518
 2161   0.015367    -5.780177     -5.263550       0.079475       0.000519
 2162   0.015352    -5.800896     -5.285600       0.079479       0.000519
 2163   0.015345    -5.818865     -5.303738       0.079481       0.000518
 2164   0.015334    -5.837126     -5.323210       0.079482       0.000517
 2165   0.015321    -5.856172     -5.344003       0.079482       0.000516
 2166   0.015307    -5.871395     -5.358470       0.079482       0.000515
 2167   0.015305    -5.884494     -5.370343       0.079479       0.000514
 2168   0.015290    -5.898849     -5.384750       0.079476       0.000513
 2169   0.015278    -5.916154     -5.403262       0.079474       0.000512
 2170   0.015268    -5.933750     -5.421254       0.079471       0.000511

---------------------- Local Time Stepping Summary ----------------------
MG level: 0 -> Min. DT: 0.000497732. Max. DT: 3.62867. CFL: 10.
MG level: 1 -> Min. DT: 0.000799735. Max. DT: 5.71103. CFL: 8.35917.
MG level: 2 -> Min. DT: 0.00155914. Max. DT: 8.31059. CFL: 7.39444.
-------------------------------------------------------------------------

----------------------- Residual Evolution Summary ----------------------
log10[Maximum residual]: -4.76421.
Maximum residual point 378, located at (0.394409, 0.0615765).
-------------------------------------------------------------------------

 Iter    Time(s)     Res[Rho]     Res[RhoE]      CL(Total)      CD(Total)
 2171   0.015254    -5.949806     -5.436549       0.079467       0.000511
 2172   0.015258    -5.966224     -5.452677       0.079464       0.000510
 2173   0.015299    -5.985408     -5.472903       0.079462       0.000510
 2174   0.015350    -6.006613     -5.495451       0.079461       0.000510
 2175   0.015416    -6.028510     -5.518287       0.079460       0.000510
 2176   0.015458    -6.050719     -5.541246       0.079460       0.000510
 2177   0.015446    -6.073414     -5.564698       0.079460       0.000511
 2178   0.015432    -6.095862     -5.587478       0.079460       0.000511
 2179   0.015425    -6.117257     -5.608494       0.079461       0.000511
 2180   0.015419    -6.136986     -5.627259       0.079461       0.000511
 2181   0.015409    -6.155283     -5.644389       0.079461       0.000511
 2182   0.015397    -6.172692     -5.660674       0.079459       0.000511
 2183   0.015391    -6.190746     -5.678263       0.079458       0.000511
 2184   0.015378    -6.210021     -5.697664       0.079455       0.000511
 2185   0.015365    -6.230754     -5.718998       0.079452       0.000511
 2186   0.015360    -6.252234     -5.741056       0.079448       0.000511
 2187   0.015353    -6.274580     -5.764085       0.079444       0.000510
 2188   0.015350    -6.297953     -5.788313       0.079440       0.000510
 2189   0.015378    -6.322353     -5.813700       0.079436       0.000510
 2190   0.015385    -6.347119     -5.839258       0.079430       0.000509
 2191   0.015448    -6.371535     -5.864073       0.079425       0.000509
 2192   0.015440    -6.394863     -5.887240       0.079420       0.000508
 2193   0.015433    -6.416685     -5.908409       0.079414       0.000508
 2194   0.015427    -6.437139     -5.927943       0.079409       0.000508
 2195   0.015413    -6.456650     -5.946570       0.079403       0.000507
 2196   0.015406    -6.475276     -5.964346       0.079397       0.000507
 2197   0.015392    -6.492359     -5.980297       0.079391       0.000507
 2198   0.015385    -6.505972     -5.991792       0.079385       0.000507
 2199   0.015381    -6.514232     -5.996730       0.079380       0.000507
 2200   0.015374    -6.520349     -6.000086       0.079374       0.000507
 2201   0.015376    -6.530937     -6.010593       0.079368       0.000507
 2202   0.015373    -6.546876     -6.028361       0.079361       0.000507
 2203   0.015365    -6.572880     -6.059195       0.079356       0.000507
 2204   0.015354    -6.591465     -6.077782       0.079353       0.000507
 2205   0.015344    -6.590722     -6.069972       0.079349       0.000507
 2206   0.015343    -6.617211     -6.102201       0.079345       0.000507
 2207   0.015338    -6.641659     -6.132838       0.079342       0.000506
 2208   0.015333    -6.670948     -6.164145       0.079339       0.000506
 2209   0.015324    -6.691422     -6.182614       0.079337       0.000506
 2210   0.015317    -6.704085     -6.191437       0.079335       0.000506

---------------------- Local Time Stepping Summary ----------------------
MG level: 0 -> Min. DT: 0.000497772. Max. DT: 3.62867. CFL: 10.
MG level: 1 -> Min. DT: 0.000799723. Max. DT: 5.71104. CFL: 8.35917.
MG level: 2 -> Min. DT: 0.00155923. Max. DT: 8.31059. CFL: 7.39444.
-------------------------------------------------------------------------

----------------------- Residual Evolution Summary ----------------------
log10[Maximum residual]: -5.56755.
Maximum residual point 407, located at (0.551932, 0.059104).
-------------------------------------------------------------------------

 Iter    Time(s)     Res[Rho]     Res[RhoE]      CL(Total)      CD(Total)
 2211   0.015311    -6.728742     -6.219802       0.079334       0.000506
 2212   0.015307    -6.747355     -6.237967       0.079333       0.000506
 2213   0.015302    -6.757356     -6.243666       0.079332       0.000507
 2214   0.015295    -6.773429     -6.260247       0.079332       0.000507
 2215   0.015290    -6.796298     -6.286440       0.079333       0.000507
 2216   0.015281    -6.817130     -6.307438       0.079333       0.000507
 2217   0.015276    -6.832289     -6.320013       0.079334       0.000507
 2218   0.015266    -6.852495     -6.341301       0.079335       0.000508
 2219   0.015256    -6.878831     -6.371392       0.079336       0.000508
 2220   0.015248    -6.904874     -6.398753       0.079337       0.000508
 2221   0.015241    -6.930239     -6.424217       0.079338       0.000508
 2222   0.015238    -6.954488     -6.448384       0.079340       0.000508
 2223   0.015231    -6.979335     -6.473670       0.079341       0.000508
 2224   0.015230    -7.003344     -6.497455       0.079343       0.000508
 2225   0.015221    -7.027395     -6.521322       0.079345       0.000508
 2226   0.015216    -7.050238     -6.543471       0.079347       0.000508
 2227   0.015210    -7.072305     -6.564847       0.079349       0.000508
 2228   0.015203    -7.092161     -6.583296       0.079351       0.000508
 2229   0.015200    -7.113234     -6.604067       0.079353       0.000508
 2230   0.015200    -7.133841     -6.624219       0.079355       0.000508
 2231   0.015198    -7.154307     -6.644193       0.079357       0.000508
 2232   0.015192    -7.173466     -6.662471       0.079359       0.000508
 2233   0.015185    -7.194192     -6.683328       0.079361       0.000508
 2234   0.015180    -7.216004     -6.705716       0.079363       0.000508
 2235   0.015174    -7.238823     -6.729399       0.079365       0.000508
 2236   0.015176    -7.261349     -6.752351       0.079366       0.000508
 2237   0.015172    -7.283917     -6.775468       0.079368       0.000508
 2238   0.015166    -7.306277     -6.798223       0.079370       0.000508
 2239   0.015180    -7.327746     -6.819860       0.079371       0.000508
 2240   0.015202    -7.349295     -6.841748       0.079373       0.000507
 2241   0.015214    -7.369656     -6.862100       0.079375       0.000507
 2242   0.015209    -7.388626     -6.880537       0.079376       0.000507
 2243   0.015203    -7.405856     -6.896956       0.079378       0.000507
 2244   0.015200    -7.421383     -6.911247       0.079379       0.000507
 2245   0.015196    -7.435555     -6.924151       0.079380       0.000507
 2246   0.015194    -7.449277     -6.936827       0.079382       0.000507
 2247   0.015187    -7.463630     -6.950688       0.079383       0.000507
 2248   0.015191    -7.478513     -6.965161       0.079384       0.000507
 2249   0.015187    -7.493974     -6.980418       0.079386       0.000507
 2250   0.015184    -7.509667     -6.995736       0.079387       0.000507

---------------------- Local Time Stepping Summary ----------------------
MG level: 0 -> Min. DT: 0.000497743. Max. DT: 3.62867. CFL: 10.
MG level: 1 -> Min. DT: 0.000799726. Max. DT: 5.71103. CFL: 8.35917.
MG level: 2 -> Min. DT: 0.00155916. Max. DT: 8.31059. CFL: 7.39444.
-------------------------------------------------------------------------

----------------------- Residual Evolution Summary ----------------------
log10[Maximum residual]: -6.40409.
Maximum residual point 436, located at (0.363672, 0.0610964).
-------------------------------------------------------------------------

 Iter    Time(s)     Res[Rho]     Res[RhoE]      CL(Total)      CD(Total)
 2251   0.015181    -7.525275     -7.010972       0.079388       0.000507
 2252   0.015176    -7.541690     -7.027276       0.079389       0.000507
 2253   0.015169    -7.558707     -7.044397       0.079391       0.000507
 2254   0.015166    -7.576319     -7.062048       0.079392       0.000507
 2255   0.015164    -7.594216     -7.080021       0.079393       0.000507
 2256   0.015184    -7.611966     -7.097533       0.079394       0.000507
 2257   0.015204    -7.629322     -7.114599       0.079395       0.000507
 2258   0.015234    -7.646061     -7.130826       0.079396       0.000507
 2259   0.015231    -7.662399     -7.146738       0.079397       0.000507
 2260   0.015226    -7.677785     -7.161398       0.079398       0.000507
 2261   0.015222    -7.692831     -7.175892       0.079399       0.000507
 2262   0.015219    -7.705877     -7.187694       0.079400       0.000507
 2263   0.015214    -7.717247     -7.197679       0.079401       0.000507
 2264   0.015208    -7.726063     -7.204598       0.079402       0.000507
 2265   0.015201    -7.733052     -7.209690       0.079403       0.000507
 2266   0.015196    -7.738797     -7.213644       0.079404       0.000507
 2267   0.015192    -7.744458     -7.217948       0.079405       0.000507
 2268   0.015194    -7.750332     -7.222774       0.079406       0.000507
 2269   0.015194    -7.756608     -7.228247       0.079406       0.000507
 2270   0.015190    -7.763515     -7.234593       0.079407       0.000507
 2271   0.015193    -7.771383     -7.242197       0.079408       0.000507
 2272   0.015190    -7.780544     -7.251420       0.079409       0.000507
 2273   0.015185    -7.791097     -7.262304       0.079410       0.000507
 2274   0.015182    -7.803223     -7.275030       0.079411       0.000507
 2275   0.015179    -7.817523     -7.290365       0.079411       0.000507
 2276   0.015183    -7.832436     -7.306196       0.079412       0.000507
 2277   0.015178    -7.833308     -7.303076       0.079413       0.000507
 2278   0.015176    -7.838095     -7.306301       0.079413       0.000507
 2279   0.015178    -7.877309     -7.359554       0.079414       0.000507
 2280   0.015175    -7.869696     -7.343606       0.079414       0.000507
 2281   0.015172    -7.884417     -7.358263       0.079415       0.000507
 2282   0.015170    -7.914953     -7.398147       0.079415       0.000507
 2283   0.015165    -7.909364     -7.384710       0.079416       0.000507
 2284   0.015163    -7.952354     -7.436609       0.079416       0.000507
 2285   0.015158    -7.981941     -7.468909       0.079417       0.000507
 2286   0.015155    -7.967879     -7.442194       0.079417       0.000507
 2287   0.015150    -8.009980     -7.494524       0.079418       0.000507
 2288   0.015148    -8.042149     -7.529737       0.079418       0.000507
 2289   0.015145    -8.038464     -7.514620       0.079418       0.000507
 2290   0.015141    -8.071753     -7.554473       0.079419       0.000507

---------------------- Local Time Stepping Summary ----------------------
MG level: 0 -> Min. DT: 0.000497738. Max. DT: 3.62867. CFL: 10.
MG level: 1 -> Min. DT: 0.000799728. Max. DT: 5.71103. CFL: 8.35917.
MG level: 2 -> Min. DT: 0.00155915. Max. DT: 8.31059. CFL: 7.39444.
-------------------------------------------------------------------------

----------------------- Residual Evolution Summary ----------------------
log10[Maximum residual]: -6.98657.
Maximum residual point 1428, located at (0.312598, 0.178433).
-------------------------------------------------------------------------

 Iter    Time(s)     Res[Rho]     Res[RhoE]      CL(Total)      CD(Total)
 2291   0.015139    -8.096045     -7.579441       0.079419       0.000507
 2292   0.015135    -8.100663     -7.576577       0.079419       0.000507
 2293   0.015130    -8.122855     -7.601444       0.079420       0.000507
 2294   0.015128    -8.141515     -7.620660       0.079420       0.000507
 2295   0.015130    -8.153045     -7.629338       0.079420       0.000507
 2296   0.015130    -8.173393     -7.651570       0.079420       0.000507
 2297   0.015130    -8.190846     -7.669119       0.079421       0.000507
 2298   0.015128    -8.204545     -7.681350       0.079421       0.000507
 2299   0.015124    -8.225106     -7.704063       0.079421       0.000507
 2300   0.015121    -8.245006     -7.725166       0.079421       0.000507
 2301   0.015119    -8.262186     -7.742032       0.079421       0.000507
 2302   0.015115    -8.282485     -7.763884       0.079422       0.000507
 2303   0.015114    -8.302327     -7.784851       0.079422       0.000507
 2304   0.015110    -8.320257     -7.802924       0.079422       0.000507
 2305   0.015106    -8.339357     -7.823146       0.079422       0.000507
 2306   0.015127    -8.358634     -7.843638       0.079422       0.000507
 2307   0.015144    -8.377418     -7.863242       0.079422       0.000507
 2308   0.015145    -8.396691     -7.883643       0.079422       0.000507
 2309   0.015141    -8.416381     -7.904583       0.079422       0.000507
 2310   0.015139    -8.436411     -7.925814       0.079422       0.000507
 2311   0.015135    -8.456422     -7.946823       0.079422       0.000507
 2312   0.015135    -8.476438     -7.967705       0.079422       0.000507
 2313   0.015132    -8.496099     -7.987921       0.079422       0.000507
 2314   0.015128    -8.515161     -8.007159       0.079422       0.000507
 2315   0.015124    -8.533435     -8.025218       0.079422       0.000507
 2316   0.015121    -8.550591     -8.041695       0.079422       0.000507
 2317   0.015116    -8.565892     -8.055653       0.079422       0.000507
 2318   0.015113    -8.577926     -8.065406       0.079422       0.000507
 2319   0.015109    -8.587775     -8.072864       0.079422       0.000507
 2320   0.015106    -8.599697     -8.083686       0.079422       0.000507
 2321   0.015105    -8.617129     -8.102110       0.079422       0.000507
 2322   0.015107    -8.633199     -8.118161       0.079422       0.000507
 2323   0.015120    -8.618387     -8.091923       0.079422       0.000507
 2324   0.015134    -8.654681     -8.140005       0.079422       0.000507
 2325   0.015157    -8.681604     -8.171534       0.079422       0.000507
 2326   0.015157    -8.694462     -8.178321       0.079422       0.000507
 2327   0.015155    -8.711335     -8.193245       0.079422       0.000507
 2328   0.015153    -8.734250     -8.218037       0.079422       0.000507
 2329   0.015149    -8.754628     -8.237832       0.079422       0.000507
 2330   0.015145    -8.761497     -8.239067       0.079422       0.000507

---------------------- Local Time Stepping Summary ----------------------
MG level: 0 -> Min. DT: 0.000497738. Max. DT: 3.62867. CFL: 10.
MG level: 1 -> Min. DT: 0.000799728. Max. DT: 5.71103. CFL: 8.35917.
MG level: 2 -> Min. DT: 0.00155915. Max. DT: 8.31059. CFL: 7.39444.
-------------------------------------------------------------------------

----------------------- Residual Evolution Summary ----------------------
log10[Maximum residual]: -7.65042.
Maximum residual point 1428, located at (0.312598, 0.178433).
-------------------------------------------------------------------------

 Iter    Time(s)     Res[Rho]     Res[RhoE]      CL(Total)      CD(Total)
 2331   0.015141    -8.768807     -8.243376       0.079422       0.000507
 2332   0.015138    -8.785847     -8.262613       0.079422       0.000507
 2333   0.015137    -8.802091     -8.279189       0.079422       0.000507
 2334   0.015134    -8.811094     -8.285197       0.079422       0.000507
 2335   0.015130    -8.821100     -8.293870       0.079422       0.000507
 2336   0.015130    -8.838222     -8.313130       0.079421       0.000507
 2337   0.015128    -8.858188     -8.335583       0.079421       0.000507
 2338   0.015125    -8.878409     -8.357320       0.079421       0.000507
 2339   0.015124    -8.898276     -8.378248       0.079421       0.000507
 2340   0.015121    -8.919309     -8.400888       0.079421       0.000507
 2341   0.015123    -8.941601     -8.425173       0.079421       0.000507

-------------------------- File Output Summary --------------------------
Writing comma-separated values (CSV) surface files.
Merging coordinates in the Master node.
Merging solution in the Master node.
Writing SU2 native restart file.
Writing the forces breakdown file.
-------------------------------------------------------------------------

 2342   0.015308    -8.963406     -8.448486       0.079421       0.000507
 2343   0.015305    -8.983924     -8.469988       0.079421       0.000507
 2344   0.015302    -9.003910     -8.491001       0.079421       0.000507
 2345   0.015299    -9.023344     -8.511359       0.079421       0.000507
 2346   0.015297    -9.041322     -8.529666       0.079421       0.000507
 2347   0.015294    -9.057121     -8.545064       0.079421       0.000507
 2348   0.015291    -9.070060     -8.556821       0.079421       0.000507
 2349   0.015297    -9.079535     -8.564306       0.079421       0.000507
 2350   0.015294    -9.087307     -8.570184       0.079421       0.000507
 2351   0.015290    -9.096559     -8.578613       0.079422       0.000507
 2352   0.015286    -9.106148     -8.587046       0.079422       0.000507
 2353   0.015284    -9.108839     -8.585577       0.079422       0.000507
 2354   0.015283    -9.124248     -8.602922       0.079422       0.000507
 2355   0.015281    -9.155660     -8.643362       0.079422       0.000507
 2356   0.015281    -9.158684     -8.639269       0.079422       0.000507
 2357   0.015278    -9.192089     -8.679953       0.079422       0.000507
 2358   0.015277    -9.204272     -8.690290       0.079422       0.000507
 2359   0.015275    -9.221565     -8.705456       0.079422       0.000507
 2360   0.015274    -9.239737     -8.722935       0.079422       0.000507
 2361   0.015272    -9.271339     -8.759335       0.079422       0.000507
 2362   0.015270    -9.285602     -8.768648       0.079422       0.000507
 2363   0.015269    -9.310030     -8.794255       0.079422       0.000507
 2364   0.015267    -9.323801     -8.804986       0.079422       0.000507
 2365   0.015264    -9.343352     -8.824678       0.079422       0.000507
 2366   0.015260    -9.360150     -8.840654       0.079422       0.000507
 2367   0.015258    -9.372131     -8.849972       0.079422       0.000507
 2368   0.015255    -9.384614     -8.861484       0.079422       0.000507
 2369   0.015265    -9.408854     -8.890624       0.079422       0.000507
 2370   0.015269    -9.433352     -8.917323       0.079422       0.000507

---------------------- Local Time Stepping Summary ----------------------
MG level: 0 -> Min. DT: 0.000497738. Max. DT: 3.62867. CFL: 10.
MG level: 1 -> Min. DT: 0.000799728. Max. DT: 5.71103. CFL: 8.35917.
MG level: 2 -> Min. DT: 0.00155915. Max. DT: 8.31059. CFL: 7.39444.
-------------------------------------------------------------------------

----------------------- Residual Evolution Summary ----------------------
log10[Maximum residual]: -8.36816.
Maximum residual point 711, located at (0.28838, 0.0895234).
-------------------------------------------------------------------------

 Iter    Time(s)     Res[Rho]     Res[RhoE]      CL(Total)      CD(Total)
 2371   0.015282    -9.454608     -8.938287       0.079422       0.000507
 2372   0.015278    -9.474491     -8.958440       0.079422       0.000507
 2373   0.015278    -9.495466     -8.980863       0.079422       0.000507
 2374   0.015276    -9.514419     -9.000145       0.079422       0.000507
 2375   0.015272    -9.531480     -9.016958       0.079422       0.000507
 2376   0.015269    -9.547914     -9.033720       0.079422       0.000507
 2377   0.015266    -9.558781     -9.042604       0.079422       0.000507
 2378   0.015262    -9.568892     -9.052173       0.079422       0.000507
 2379   0.015259    -9.577124     -9.059274       0.079422       0.000507
 2380   0.015259    -9.588360     -9.071053       0.079422       0.000507
 2381   0.015256    -9.599846     -9.082571       0.079422       0.000507
 2382   0.015253    -9.610623     -9.092662       0.079422       0.000507
 2383   0.015251    -9.622137     -9.103772       0.079422       0.000507
 2384   0.015265    -9.639482     -9.122976       0.079422       0.000507
 2385   0.015262    -9.653567     -9.136323       0.079422       0.000507
 2386   0.015274    -9.669144     -9.151988       0.079422       0.000507
 2387   0.015277    -9.699158     -9.188775       0.079422       0.000507
 2388   0.015298    -9.719619     -9.207669       0.079422       0.000507
 2389   0.015297    -9.733733     -9.218516       0.079422       0.000507
 2390   0.015294    -9.756222     -9.243550       0.079422       0.000507
 2391   0.015290    -9.774276     -9.260166       0.079422       0.000507
 2392   0.015289    -9.785971     -9.268147       0.079422       0.000507
 2393   0.015287    -9.798922     -9.279814       0.079422       0.000507
 2394   0.015286    -9.814162     -9.294932       0.079422       0.000507
 2395   0.015282    -9.829362     -9.309353       0.079422       0.000507
 2396   0.015278    -9.839668     -9.316935       0.079422       0.000507
 2397   0.015275    -9.851025     -9.327113       0.079422       0.000507
 2398   0.015273    -9.867490     -9.344892       0.079422       0.000507
 2399   0.015270    -9.885309     -9.363695       0.079422       0.000507
 2400   0.015269    -9.902564     -9.381125       0.079422       0.000507
 2401   0.015266    -9.921506     -9.401081       0.079422       0.000507
 2402   0.015266    -9.942968     -9.424425       0.079422       0.000507
 2403   0.015262    -9.965152     -9.448180       0.079422       0.000507
 2404   0.015260    -9.986873     -9.471019       0.079422       0.000507
 2405   0.015258   -10.007964     -9.493129       0.079422       0.000507
 2406   0.015254   -10.027886     -9.513748       0.079422       0.000507
 2407   0.015253   -10.045129     -9.530817       0.079422       0.000507
 2408   0.015250   -10.059430     -9.544393       0.079422       0.000507
 2409   0.015253   -10.070644     -9.554406       0.079422       0.000507
 2410   0.015252   -10.079074     -9.561311       0.079422       0.000507

---------------------- Local Time Stepping Summary ----------------------
MG level: 0 -> Min. DT: 0.000497738. Max. DT: 3.62867. CFL: 10.
MG level: 1 -> Min. DT: 0.000799728. Max. DT: 5.71103. CFL: 8.35917.
MG level: 2 -> Min. DT: 0.00155915. Max. DT: 8.31059. CFL: 7.39444.
-------------------------------------------------------------------------

----------------------- Residual Evolution Summary ----------------------
log10[Maximum residual]: -8.90474.
Maximum residual point 1353, located at (0.353592, 0.156679).
-------------------------------------------------------------------------

 Iter    Time(s)     Res[Rho]     Res[RhoE]      CL(Total)      CD(Total)
 2411   0.015252   -10.085774     -9.566544       0.079422       0.000507
 2412   0.015250   -10.092679     -9.572602       0.079422       0.000507
 2413   0.015249   -10.101417     -9.581286       0.079422       0.000507
 2414   0.015247   -10.111800     -9.591758       0.079422       0.000507
 2415   0.015246   -10.119500     -9.597713       0.079422       0.000507
 2416   0.015244   -10.127935     -9.605005       0.079422       0.000507
 2417   0.015241   -10.152660     -9.635422       0.079422       0.000507
 2418   0.015238   -10.176503     -9.661959       0.079422       0.000507
 2419   0.015235   -10.184860     -9.665325       0.079422       0.000507
 2420   0.015234   -10.217736     -9.707048       0.079422       0.000507
 2421   0.015231   -10.242071     -9.730951       0.079422       0.000507
 2422   0.015230   -10.245960     -9.726305       0.079422       0.000507
 2423   0.015227   -10.262107     -9.743382       0.079422       0.000507
 2424   0.015225   -10.281632     -9.764696       0.079422       0.000507
 2425   0.015225   -10.294263     -9.774298       0.079422       0.000507
 2426   0.015222   -10.301219     -9.777464       0.079422       0.000507
 2427   0.015220   -10.311183     -9.786413       0.079422       0.000507
 2428   0.015217   -10.325620     -9.801542       0.079422       0.000507
 2429   0.015215   -10.336214     -9.810453       0.079422       0.000507
 2430   0.015212   -10.346573     -9.819555       0.079422       0.000507
 2431   0.015213   -10.361649     -9.835816       0.079422       0.000507
 2432   0.015210   -10.380821     -9.857212       0.079422       0.000507
 2433   0.015210   -10.400316     -9.877966       0.079422       0.000507
 2434   0.015207   -10.419842     -9.898409       0.079422       0.000507
 2435   0.015204   -10.440229     -9.920165       0.079422       0.000507
 2436   0.015216   -10.461771     -9.943445       0.079422       0.000507
 2437   0.015227   -10.483176     -9.966286       0.079422       0.000507
 2438   0.015226   -10.503207     -9.987156       0.079422       0.000507
 2439   0.015223   -10.521896    -10.006436       0.079422       0.000507
 2440   0.015220   -10.539216    -10.024162       0.079422       0.000507
 2441   0.015218   -10.554610    -10.039493       0.079422       0.000507
 2442   0.015219   -10.567481    -10.051676       0.079422       0.000507
 2443   0.015218   -10.578338    -10.061622       0.079422       0.000507
 2444   0.015217   -10.586575    -10.068410       0.079422       0.000507
 2445   0.015214   -10.594157    -10.074867       0.079422       0.000507
 2446   0.015212   -10.602902    -10.083190       0.079422       0.000507
 2447   0.015212   -10.613340    -10.093522       0.079422       0.000507
 2448   0.015210   -10.620724    -10.098883       0.079422       0.000507
 2449   0.015210   -10.629138    -10.106138       0.079422       0.000507
 2450   0.015209   -10.658507    -10.143407       0.079422       0.000507

---------------------- Local Time Stepping Summary ----------------------
MG level: 0 -> Min. DT: 0.000497738. Max. DT: 3.62867. CFL: 10.
MG level: 1 -> Min. DT: 0.000799728. Max. DT: 5.71103. CFL: 8.35917.
MG level: 2 -> Min. DT: 0.00155915. Max. DT: 8.31059. CFL: 7.39444.
-------------------------------------------------------------------------

----------------------- Residual Evolution Summary ----------------------
log10[Maximum residual]: -9.59539.
Maximum residual point 1428, located at (0.312598, 0.178433).
-------------------------------------------------------------------------

 Iter    Time(s)     Res[Rho]     Res[RhoE]      CL(Total)      CD(Total)
 2451   0.015207   -10.682617    -10.169418       0.079422       0.000507
 2452   0.015210   -10.691405    -10.172821       0.079422       0.000507
 2453   0.015218   -10.721158    -10.210116       0.079422       0.000507
 2454   0.015228   -10.746931    -10.236398       0.079422       0.000507
 2455   0.015241   -10.756006    -10.238610       0.079422       0.000507
 2456   0.015240   -10.773035    -10.255822       0.079422       0.000507
 2457   0.015239   -10.792207    -10.276012       0.079422       0.000507
 2458   0.015236   -10.807995    -10.289952       0.079422       0.000507
 2459   0.015234   -10.814190    -10.291490       0.079422       0.000507
 2460   0.015232   -10.821403    -10.296414       0.079422       0.000507
 2461   0.015230   -10.836585    -10.313098       0.079422       0.000507
 2462   0.015227   -10.849428    -10.325145       0.079422       0.000507
 2463   0.015225   -10.857038    -10.330039       0.079422       0.000507
 2464   0.015222   -10.871516    -10.345701       0.079422       0.000507
 2465   0.015221   -10.892079    -10.369470       0.079422       0.000507
 2466   0.015219   -10.913390    -10.392574       0.079422       0.000507
 2467   0.015220   -10.933354    -10.413170       0.079422       0.000507
 2468   0.015218   -10.953498    -10.434420       0.079422       0.000507
 2469   0.015216   -10.975919    -10.459008       0.079422       0.000507
 2470   0.015215   -10.996850    -10.481033       0.079422       0.000507
 2471   0.015213   -11.016941    -10.501978       0.079422       0.000507
 2472   0.015212   -11.033504    -10.518265       0.079422       0.000507
 2473   0.015210   -11.049168    -10.534080       0.079422       0.000507
 2474   0.015209   -11.063375    -10.548216       0.079422       0.000507
 2475   0.015207   -11.075631    -10.559892       0.079422       0.000507
 2476   0.015207   -11.086841    -10.570506       0.079422       0.000507
 2477   0.015209   -11.096326    -10.578939       0.079422       0.000507
 2478   0.015208   -11.105946    -10.587946       0.079422       0.000507
 2479   0.015207   -11.115409    -10.596688       0.079422       0.000507
 2480   0.015205   -11.125832    -10.606600       0.079422       0.000507
 2481   0.015206   -11.135114    -10.614426       0.079422       0.000507
 2482   0.015204   -11.143770    -10.621673       0.079422       0.000507
 2483   0.015202   -11.169149    -10.652878       0.079422       0.000507
 2484   0.015200   -11.199657    -10.688896       0.079422       0.000507
 2485   0.015199   -11.209293    -10.692131       0.079422       0.000507
 2486   0.015198   -11.235605    -10.722857       0.079422       0.000507
 2487   0.015197   -11.258509    -10.746457       0.079422       0.000507
 2488   0.015194   -11.270276    -10.753103       0.079422       0.000507
 2489   0.015194   -11.284106    -10.765541       0.079422       0.000507
 2490   0.015193   -11.303098    -10.785931       0.079422       0.000507

---------------------- Local Time Stepping Summary ----------------------
MG level: 0 -> Min. DT: 0.000497738. Max. DT: 3.62867. CFL: 10.
MG level: 1 -> Min. DT: 0.000799728. Max. DT: 5.71103. CFL: 8.35917.
MG level: 2 -> Min. DT: 0.00155915. Max. DT: 8.31059. CFL: 7.39444.
-------------------------------------------------------------------------

----------------------- Residual Evolution Summary ----------------------
log10[Maximum residual]: -10.1282.
Maximum residual point 1428, located at (0.312598, 0.178433).
-------------------------------------------------------------------------

 Iter    Time(s)     Res[Rho]     Res[RhoE]      CL(Total)      CD(Total)
 2491   0.015190   -11.318017    -10.799036       0.079422       0.000507
 2492   0.015188   -11.325597    -10.802606       0.079422       0.000507
 2493   0.015185   -11.330848    -10.804810       0.079422       0.000507
 2494   0.015183   -11.344472    -10.819684       0.079422       0.000507

-------------------------- File Output Summary --------------------------
Writing comma-separated values (CSV) surface files.
Merging coordinates in the Master node.
Merging solution in the Master node.
Writing SU2 native restart file.
Writing the forces breakdown file.
-------------------------------------------------------------------------

History file, closed.

------------------------- Solver Postprocessing -------------------------
Deleted CNumerics container.
Deleted CIntegration container.
Deleted CSolver container.
Deleted CIteration container.
Deleted CInterpolator container.
Deleted CTransfer container.
Deleted CGeometry container.
Deleted CFreeFormDefBox class.
Deleted CSurfaceMovement class.
Deleted CVolumetricMovement class.
Deleted CConfig container.
Deleted COutput class.
-------------------------------------------------------------------------

Completed in 6.188524 seconds on 8 cores.

------------------------- Exit Success (SU2_CFD) ------------------------


-------------------------------------------------------------------------
|    ___ _   _ ___                                                      |
|   / __| | | |_  )   Release 5.0.0  "Raven"                            |
|   \__ \ |_| |/ /                                                      |
|   |___/\___//___|   Suite (Solution Exporting Code)                   |
|                                                                       |
-------------------------------------------------------------------------
| SU2 Original Developers: Dr. Francisco D. Palacios.                   |
|                          Dr. Thomas D. Economon.                      |
-------------------------------------------------------------------------
| SU2 Developers:                                                       |
| - Prof. Juan J. Alonso's group at Stanford University.                |
| - Prof. Piero Colonna's group at Delft University of Technology.      |
| - Prof. Nicolas R. Gauger's group at Kaiserslautern U. of Technology. |
| - Prof. Alberto Guardone's group at Polytechnic University of Milan.  |
| - Prof. Rafael Palacios' group at Imperial College London.            |
| - Prof. Edwin van der Weide's group at the University of Twente.      |
| - Prof. Vincent Terrapon's group at the University of Liege.          |
-------------------------------------------------------------------------
| Copyright (C) 2012-2017 SU2, the open-source CFD code.                |
|                                                                       |
| SU2 is free software; you can redistribute it and/or                  |
| modify it under the terms of the GNU Lesser General Public            |
| License as published by the Free Software Foundation; either          |
| version 2.1 of the License, or (at your option) any later version.    |
|                                                                       |
| SU2 is distributed in the hope that it will be useful,                |
| but WITHOUT ANY WARRANTY; without even the implied warranty of        |
| MERCHANTABILITY or FITNESS FOR A PARTICULAR PURPOSE. See the GNU      |
| Lesser General Public License for more details.                       |
|                                                                       |
| You should have received a copy of the GNU Lesser General Public      |
| License along with SU2. If not, see <http://www.gnu.org/licenses/>.   |
-------------------------------------------------------------------------

------------------------ Physical Case Definition -----------------------
Input mesh file name: mesh_NACA0012_inv_deform.su2

-------------------------- Output Information ---------------------------
The output file format is Tecplot ASCII (.dat).
Flow variables file name: flow.

------------------- Config File Boundary Information --------------------
Euler wall boundary marker(s): airfoil.
Far-field boundary marker(s): farfield.

---------------------- Read Grid File Information -----------------------
Two dimensional problem.
5233 points before parallel partitioning.
Performing linear partitioning of the grid nodes.
10216 interior elements before parallel partitioning.
Calling the partitioning functions.
Building the graph adjacency structure.
Distributing elements across all ranks.
2 surface markers.
200 boundary elements in index 0 (Marker = airfoil).
50 boundary elements in index 1 (Marker = farfield).
Calling ParMETIS...
Finished partitioning using ParMETIS (547 edge cuts).
Communicating partition data and creating halo layers.
10763 interior elements including halo cells. 
10763 triangles.
5796 vertices including ghost points. 
Establishing MPI communication patterns.
Identify vertices.

------------------------- Solution Postprocessing -----------------------
Reading and storing the solution from restart_flow.dat.
Merging connectivities in the Master node.
Merging solution in the Master node.
Writing Tecplot ASCII file (volume grid).
Writing Tecplot ASCII file (surface grid).

Completed in 0.103688 seconds on 8 cores.

------------------------- Exit Success (SU2_SOL) ------------------------

