
-------------------------------------------------------------------------
|    ___ _   _ ___                                                      |
|   / __| | | |_  )   Release 5.0.0  "Raven"                            |
|   \__ \ |_| |/ /                                                      |
|   |___/\___//___|   Suite (Computational Fluid Dynamics Code)         |
|                                                                       |
-------------------------------------------------------------------------
| SU2 Original Developers: Dr. Francisco D. Palacios.                   |
|                          Dr. Thomas D. Economon.                      |
-------------------------------------------------------------------------
| SU2 Developers:                                                       |
| - Prof. Juan J. Alonso's group at Stanford University.                |
| - Prof. Piero Colonna's group at Delft University of Technology.      |
| - Prof. Nicolas R. Gauger's group at Kaiserslautern U. of Technology. |
| - Prof. Alberto Guardone's group at Polytechnic University of Milan.  |
| - Prof. Rafael Palacios' group at Imperial College London.            |
| - Prof. Edwin van der Weide's group at the University of Twente.      |
| - Prof. Vincent Terrapon's group at the University of Liege.          |
-------------------------------------------------------------------------
| Copyright (C) 2012-2017 SU2, the open-source CFD code.                |
|                                                                       |
| SU2 is free software; you can redistribute it and/or                  |
| modify it under the terms of the GNU Lesser General Public            |
| License as published by the Free Software Foundation; either          |
| version 2.1 of the License, or (at your option) any later version.    |
|                                                                       |
| SU2 is distributed in the hope that it will be useful,                |
| but WITHOUT ANY WARRANTY; without even the implied warranty of        |
| MERCHANTABILITY or FITNESS FOR A PARTICULAR PURPOSE. See the GNU      |
| Lesser General Public License for more details.                       |
|                                                                       |
| You should have received a copy of the GNU Lesser General Public      |
| License along with SU2. If not, see <http://www.gnu.org/licenses/>.   |
-------------------------------------------------------------------------

------------------------ Physical Case Definition -----------------------
Compressible Euler equations.
Mach number: 0.8.
Angle of attack (AoA): 1.25 deg, and angle of sideslip (AoS): 0 deg.
Read flow solution from: solution_flow.dat.
Non-Dimensional simulation (P=1.0, Rho=1.0, T=1.0 at the farfield).
The reference length/area (force coefficient) is 1.
The reference length (moment computation) is 1.
Reference origin (moment computation) is (0.25, 0, 0).
Surface(s) where the force coefficients are evaluated: airfoil.
Surface(s) plotted in the output file: airfoil.
Surface(s) affected by the design variables: airfoil.
Input mesh file name: mesh_NACA0012_inv_deform.su2

---------------------- Space Numerical Integration ----------------------
Jameson-Schmidt-Turkel scheme for the flow inviscid terms.
JST viscous coefficients (1st, 2nd & 4th): 0.15, 0.5, 0.02.
The method includes a grid stretching correction (p = 0.3).
Second order integration.
Gradient computation using Green-Gauss theorem.

---------------------- Time Numerical Integration -----------------------
Local time stepping (steady state simulation).
Euler implicit method for the flow equations.
V Multigrid Cycle, with 2 multigrid levels.
Damping factor for the residual restriction: 1.
Damping factor for the correction prolongation: 1.
No CFL adaptation.
Multigrid Level:                       0     1     2
Courant-Friedrichs-Lewy number:       10
MG PreSmooth coefficients:             1     2     3
MG PostSmooth coefficients:            0     0     0
MG CorrecSmooth coefficients:          0     0     0

------------------------- Convergence Criteria --------------------------
Maximum number of iterations: 1000.
Reduce the density residual 6 orders of magnitude.
The minimum bound for the density residual is 10^(-13).
Start convergence criteria at iteration 10.

-------------------------- Output Information ---------------------------
Writing a flow solution every 250 iterations.
Writing the convergence history every 1 iterations.
The output file format is Tecplot ASCII (.dat).
Convergence history file name: history_direct.
Forces breakdown file name: forces_breakdown.dat.
Surface flow coefficients file name: surface_flow.
Flow variables file name: flow.
Restart flow file name: restart_flow.dat.

------------------- Config File Boundary Information --------------------
Euler wall boundary marker(s): airfoil.
Far-field boundary marker(s): farfield.

---------------------- Read Grid File Information -----------------------
Two dimensional problem.
5233 points before parallel partitioning.
Performing linear partitioning of the grid nodes.
10216 interior elements before parallel partitioning.
Calling the partitioning functions.
Building the graph adjacency structure.
Distributing elements across all ranks.
2 surface markers.
200 boundary elements in index 0 (Marker = airfoil).
50 boundary elements in index 1 (Marker = farfield).
Calling ParMETIS...
Finished partitioning using ParMETIS (547 edge cuts).
Communicating partition data and creating halo layers.
10763 interior elements including halo cells. 
10763 triangles.
5796 vertices including ghost points. 
Establishing MPI communication patterns.

------------------------- Geometry Preprocessing ------------------------
Setting point connectivity.
Renumbering points (Reverse Cuthill McKee Ordering).
Recomputing point connectivity.
Setting element connectivity.
Checking the numerical grid orientation.
Identifying edges and vertices.
Computing centers of gravity.
Setting the control volume structure.
Area of the computational grid: 1.3e+03.
Searching for the closest normal neighbors to the surfaces.
Compute the surface curvature.
Max K: 7.84e+03. Mean K: 35.7. Standard deviation K: 494.
Checking for periodicity.
Setting the multigrid structure.
MG level: 0 -> CVs: 5796. Agglomeration rate 1/1.00. CFL 10.
MG level: 1 -> CVs: 1800. Agglomeration rate 1/3.22. CFL 8.36.
MG level: 2 -> CVs: 626. Agglomeration rate 1/2.88. CFL 7.39.
Computing wall distances.
Wetted area = 2.03 m.
Area projection in the x-plane = 0.107 m, y-plane = 1 m.

------------------------- Driver information --------------------------
A Fluid driver has been instantiated.

------------------------ Iteration Preprocessing ------------------------
Zone 1: Euler/Navier-Stokes/RANS flow iteration.

------------------------- Solver Preprocessing --------------------------
Inviscid flow: Computing density based on free-stream
temperature and pressure using the ideal gas law.
Force coefficients computed using free-stream values.
-- Input conditions:
Fluid Model: STANDARD_AIR 
Specific gas constant: 287.058 N.m/kg.K.
Specific gas constant (non-dim): 1
Specific Heat Ratio: 1.4
Free-stream static pressure: 101325 Pa.
Free-stream total pressure: 154454 Pa.
Free-stream temperature: 288.15 K.
Free-stream density: 1.22498 kg/m^3.
Free-stream velocity: (272.173, 5.93883) m/s. Magnitude: 272.238 m/s (529.186 KTS).
Free-stream total energy per unit mass: 243846 m^2/s^2.
-- Reference values:
Reference specific gas constant: 287.058 N.m/kg.K.
Reference pressure: 101325 Pa.
Reference temperature: 288.15 K.
Reference density: 1.22498 kg/m^3.
Reference velocity: 287.603 m/s.
Reference energy per unit mass: 82715.8 m^2/s^2.
-- Resulting non-dimensional state:
Mach number (non-dim): 0.8
Specific gas constant (non-dim): 1
Free-stream temperature (non-dim): 1
Free-stream pressure (non-dim): 1
Free-stream density (non-dim): 1
Free-stream velocity (non-dim): (0.946348, 0.0206494). Magnitude: 0.946573
Free-stream total energy per unit mass (non-dim): 2.948

Initialize Jacobian structure (Euler). MG level: 0.
Initialize Jacobian structure (Euler). MG level: 1.
Initialize Jacobian structure (Euler). MG level: 2.

----------------- Integration and Numerics Preprocessing ----------------
Integration Preprocessing.
Numerics Preprocessing.

------------------------------ Begin Solver -----------------------------

---------------------- Local Time Stepping Summary ----------------------
MG level: 0 -> Min. DT: 0.000497805. Max. DT: 3.62867. CFL: 10.
MG level: 1 -> Min. DT: 0.000800001. Max. DT: 5.71114. CFL: 8.35917.
MG level: 2 -> Min. DT: 0.00155937. Max. DT: 8.31069. CFL: 7.39444.
-------------------------------------------------------------------------

----------------------- Residual Evolution Summary ----------------------
log10[Maximum residual]: -5.58878.
Maximum residual point 105, located at (0.00752, 0.0115659).
-------------------------------------------------------------------------

 Iter    Time(s)     Res[Rho]     Res[RhoE]      CL(Total)      CD(Total)
 3653   0.015227    -6.691019     -6.094639       0.065592       0.000353
 3654   0.014943    -6.748782     -6.145504       0.065623       0.000387
 3655   0.014770    -6.751499     -6.151568       0.065644       0.000399
 3656   0.014690    -6.719498     -6.115930       0.065669       0.000410
 3657   0.014794    -6.676983     -6.071571       0.065698       0.000418
 3658   0.015588    -6.643470     -6.040052       0.065731       0.000424
 3659   0.015511    -6.614501     -6.012239       0.065764       0.000428
 3660   0.015957    -6.587515     -5.984402       0.065795       0.000432
 3661   0.015867    -6.569443     -5.965776       0.065823       0.000436
 3662   0.015819    -6.558786     -5.954850       0.065848       0.000438
 3663   0.015675    -6.554393     -5.950337       0.065871       0.000440
 3664   0.015602    -6.554813     -5.950685       0.065890       0.000442
 3665   0.015544    -6.558333     -5.954166       0.065908       0.000443
 3666   0.015565    -6.563572     -5.959439       0.065925       0.000444
 3667   0.015612    -6.569722     -5.965708       0.065940       0.000444
 3668   0.015528    -6.576282     -5.972379       0.065953       0.000445
 3669   0.015478    -6.582743     -5.978747       0.065966       0.000445
 3670   0.015587    -6.588563     -5.984044       0.065977       0.000445
 3671   0.015715    -6.593359     -5.987743       0.065987       0.000445
 3672   0.015667    -6.597097     -5.989830       0.065997       0.000446
 3673   0.015848    -6.600153     -5.990842       0.066005       0.000446
 3674   0.016193    -6.603159     -5.991627       0.066013       0.000446
 3675   0.016232    -6.606876     -5.993147       0.066020       0.000446
 3676   0.016165    -6.612170     -5.996419       0.066027       0.000446
 3677   0.016104    -6.620093     -6.002617       0.066033       0.000446
 3678   0.016048    -6.632013     -6.013224       0.066038       0.000447
 3679   0.015979    -6.649744     -6.030194       0.066044       0.000447
 3680   0.015935    -6.675736     -6.056165       0.066049       0.000448
 3681   0.015878    -6.713512     -6.094950       0.066053       0.000448
 3682   0.015894    -6.767989     -6.151941       0.066058       0.000449
 3683   0.015846    -6.840507     -6.228880       0.066063       0.000450
 3684   0.015798    -6.905061     -6.297829       0.066070       0.000451
 3685   0.015763    -6.939521     -6.334706       0.066077       0.000452
 3686   0.015717    -6.961221     -6.358736       0.066085       0.000452
 3687   0.015688    -6.980356     -6.380991       0.066094       0.000453
 3688   0.015650    -6.995912     -6.399629       0.066102       0.000453
 3689   0.015607    -7.003909     -6.409651       0.066111       0.000453
 3690   0.015572    -7.006935     -6.414037       0.066119       0.000454
 3691   0.015565    -7.009114     -6.417592       0.066126       0.000454
 3692   0.015540    -7.011218     -6.421172       0.066133       0.000454

---------------------- Local Time Stepping Summary ----------------------
MG level: 0 -> Min. DT: 0.0004978. Max. DT: 3.62867. CFL: 10.
MG level: 1 -> Min. DT: 0.000799995. Max. DT: 5.71113. CFL: 8.35917.
MG level: 2 -> Min. DT: 0.00155935. Max. DT: 8.31069. CFL: 7.39444.
-------------------------------------------------------------------------

----------------------- Residual Evolution Summary ----------------------
log10[Maximum residual]: -6.08492.
Maximum residual point 1582, located at (0.537288, 0.217743).
-------------------------------------------------------------------------

 Iter    Time(s)     Res[Rho]     Res[RhoE]      CL(Total)      CD(Total)
 3693   0.015528    -7.012194     -6.423509       0.066140       0.000454
 3694   0.015490    -7.011914     -6.424385       0.066147       0.000455
 3695   0.015465    -7.010966     -6.424380       0.066152       0.000455
 3696   0.015445    -7.009664     -6.423776       0.066158       0.000455
 3697   0.015447    -7.008206     -6.422756       0.066163       0.000455
 3698   0.015483    -7.006983     -6.421753       0.066167       0.000454
 3699   0.015551    -7.006379     -6.421206       0.066171       0.000454
 3700   0.015530    -7.006647     -6.421413       0.066175       0.000454
 3701   0.015626    -7.008018     -6.422653       0.066179       0.000454
 3702   0.015689    -7.010719     -6.425203       0.066182       0.000454
 3703   0.015662    -7.014920     -6.429288       0.066185       0.000454
 3704   0.015656    -7.020755     -6.435093       0.066188       0.000454
 3705   0.015644    -7.028356     -6.442804       0.066190       0.000454
 3706   0.015627    -7.037843     -6.452607       0.066193       0.000454
 3707   0.015609    -7.049309     -6.464654       0.066195       0.000454
 3708   0.015589    -7.062818     -6.479073       0.066198       0.000454
 3709   0.015568    -7.078425     -6.495984       0.066200       0.000454
 3710   0.015549    -7.096184     -6.515508       0.066202       0.000454
 3711   0.015529    -7.116167     -6.537789       0.066204       0.000454
 3712   0.015517    -7.138490     -6.563025       0.066206       0.000454
 3713   0.015495    -7.163327     -6.591485       0.066208       0.000453
 3714   0.015479    -7.190906     -6.623502       0.066209       0.000453
 3715   0.015463    -7.221475     -6.659438       0.066211       0.000453
 3716   0.015447    -7.255237     -6.699582       0.066213       0.000453
 3717   0.015436    -7.292132     -6.743854       0.066214       0.000453
 3718   0.015444    -7.331223     -6.790934       0.066216       0.000453
 3719   0.015430    -7.368921     -6.835805       0.066217       0.000453
 3720   0.015411    -7.395858     -6.865675       0.066218       0.000453
 3721   0.015394    -7.399967     -6.865593       0.066219       0.000453
 3722   0.015383    -7.385808     -6.844231       0.066220       0.000453
 3723   0.015434    -7.369300     -6.822432       0.066220       0.000452
 3724   0.015419    -7.358400     -6.808615       0.066221       0.000452
 3725   0.015481    -7.353784     -6.802340       0.066221       0.000452
 3726   0.015463    -7.353158     -6.800665       0.066221       0.000452
 3727   0.015452    -7.357506     -6.805160       0.066222       0.000452
 3728   0.015459    -7.366861     -6.815955       0.066222       0.000452
 3729   0.015444    -7.377982     -6.828863       0.066222       0.000452
 3730   0.015429    -7.389394     -6.842015       0.066222       0.000452
 3731   0.015427    -7.399650     -6.853588       0.066222       0.000452
 3732   0.015414    -7.407679     -6.862219       0.066222       0.000452

---------------------- Local Time Stepping Summary ----------------------
MG level: 0 -> Min. DT: 0.000497806. Max. DT: 3.62867. CFL: 10.
MG level: 1 -> Min. DT: 0.000799998. Max. DT: 5.71113. CFL: 8.35917.
MG level: 2 -> Min. DT: 0.00155936. Max. DT: 8.31069. CFL: 7.39444.
-------------------------------------------------------------------------

----------------------- Residual Evolution Summary ----------------------
log10[Maximum residual]: -6.25578.
Maximum residual point 1601, located at (0.506514, 0.218586).
-------------------------------------------------------------------------

 Iter    Time(s)     Res[Rho]     Res[RhoE]      CL(Total)      CD(Total)
 3733   0.015404    -7.414338     -6.869116       0.066222       0.000452
 3734   0.015393    -7.420580     -6.875546       0.066223       0.000452
 3735   0.015376    -7.426952     -6.882135       0.066223       0.000452
 3736   0.015363    -7.433664     -6.889076       0.066223       0.000452
 3737   0.015351    -7.440808     -6.896465       0.066223       0.000452
 3738   0.015378    -7.448501     -6.904472       0.066223       0.000452
 3739   0.015385    -7.456880     -6.913305       0.066223       0.000452
 3740   0.015478    -7.466107     -6.923180       0.066223       0.000452
 3741   0.015463    -7.476361     -6.934322       0.066223       0.000452
 3742   0.015451    -7.487861     -6.946991       0.066223       0.000452
 3743   0.015448    -7.500808     -6.961417       0.066223       0.000452
 3744   0.015439    -7.515344     -6.977746       0.066223       0.000452
 3745   0.015428    -7.531528     -6.996010       0.066223       0.000452
 3746   0.015414    -7.549341     -7.016149       0.066223       0.000452
 3747   0.015402    -7.568702     -7.038037       0.066223       0.000452
 3748   0.015395    -7.589462     -7.061466       0.066223       0.000452
 3749   0.015383    -7.611336     -7.086076       0.066223       0.000452
 3750   0.015373    -7.633776     -7.111179       0.066223       0.000452
 3751   0.015360    -7.655687     -7.135389       0.066223       0.000452
 3752   0.015353    -7.675071     -7.155971       0.066223       0.000452
 3753   0.015340    -7.689332     -7.169434       0.066223       0.000452
 3754   0.015368    -7.696890     -7.174587       0.066223       0.000452
 3755   0.015392    -7.697305     -7.171409       0.066222       0.000452
 3756   0.015387    -7.694394     -7.165124       0.066222       0.000452
 3757   0.015378    -7.691967     -7.160488       0.066222       0.000452
 3758   0.015374    -7.691918     -7.159433       0.066222       0.000452
 3759   0.015362    -7.694643     -7.162034       0.066222       0.000452
 3760   0.015351    -7.700527     -7.168595       0.066222       0.000452
 3761   0.015339    -7.709820     -7.179352       0.066222       0.000452
 3762   0.015333    -7.722377     -7.194017       0.066222       0.000452
 3763   0.015326    -7.737803     -7.211989       0.066222       0.000452
 3764   0.015319    -7.755802     -7.232839       0.066222       0.000452
 3765   0.015311    -7.776422     -7.256604       0.066222       0.000452
 3766   0.015301    -7.799799     -7.283419       0.066222       0.000452
 3767   0.015309    -7.825306     -7.312364       0.066222       0.000452
 3768   0.015303    -7.851165     -7.340976       0.066222       0.000452
 3769   0.015298    -7.875458     -7.366790       0.066222       0.000452
 3770   0.015292    -7.897137     -7.388768       0.066222       0.000452
 3771   0.015290    -7.915775     -7.406698       0.066222       0.000452
 3772   0.015284    -7.931949     -7.421641       0.066222       0.000452

---------------------- Local Time Stepping Summary ----------------------
MG level: 0 -> Min. DT: 0.000497806. Max. DT: 3.62867. CFL: 10.
MG level: 1 -> Min. DT: 0.000799998. Max. DT: 5.71113. CFL: 8.35917.
MG level: 2 -> Min. DT: 0.00155936. Max. DT: 8.31069. CFL: 7.39444.
-------------------------------------------------------------------------

----------------------- Residual Evolution Summary ----------------------
log10[Maximum residual]: -6.76224.
Maximum residual point 261, located at (0.583332, 0.0575168).
-------------------------------------------------------------------------

 Iter    Time(s)     Res[Rho]     Res[RhoE]      CL(Total)      CD(Total)
 3773   0.015275    -7.948544     -7.437789       0.066222       0.000452
 3774   0.015282    -7.968044     -7.458372       0.066222       0.000452
 3775   0.015279    -7.989238     -7.480917       0.066222       0.000452
 3776   0.015277    -8.010880     -7.503326       0.066222       0.000452
 3777   0.015270    -8.033052     -7.526062       0.066222       0.000452
 3778   0.015264    -8.054894     -7.548070       0.066223       0.000452
 3779   0.015258    -8.076298     -7.569353       0.066223       0.000452
 3780   0.015252    -8.097626     -7.590602       0.066223       0.000452
 3781   0.015245    -8.119079     -7.612124       0.066223       0.000452
 3782   0.015238    -8.140505     -7.633617       0.066223       0.000452
 3783   0.015230    -8.162133     -7.655422       0.066223       0.000452
 3784   0.015230    -8.184687     -7.678633       0.066223       0.000452
 3785   0.015228    -8.207590     -7.702096       0.066224       0.000452
 3786   0.015226    -8.227317     -7.720755       0.066224       0.000452
 3787   0.015218    -8.251893     -7.747026       0.066224       0.000452
 3788   0.015212    -8.273829     -7.769070       0.066224       0.000452
 3789   0.015224    -8.296655     -7.792022       0.066224       0.000452
 3790   0.015237    -8.318288     -7.813412       0.066224       0.000452
 3791   0.015241    -8.338430     -7.832706       0.066224       0.000452
 3792   0.015269    -8.358518     -7.852108       0.066224       0.000452
 3793   0.015261    -8.378165     -7.871279       0.066225       0.000452
 3794   0.015261    -8.397902     -7.890476       0.066225       0.000452
 3795   0.015252    -8.418128     -7.910568       0.066225       0.000452
 3796   0.015244    -8.439210     -7.931748       0.066225       0.000452
 3797   0.015240    -8.460563     -7.953141       0.066225       0.000452
 3798   0.015236    -8.482510     -7.975174       0.066225       0.000452
 3799   0.015231    -8.504791     -7.997514       0.066225       0.000452
 3800   0.015227    -8.527721     -8.020642       0.066225       0.000452
 3801   0.015221    -8.551627     -8.045028       0.066225       0.000452
 3802   0.015214    -8.576404     -8.070440       0.066225       0.000452
 3803   0.015213    -8.601844     -8.096524       0.066225       0.000452
 3804   0.015211    -8.627790     -8.123072       0.066225       0.000452
 3805   0.015232    -8.654254     -8.150147       0.066225       0.000452
 3806   0.015274    -8.681404     -8.178014       0.066225       0.000452
 3807   0.015284    -8.709505     -8.207035       0.066225       0.000452
 3808   0.015280    -8.738874     -8.237594       0.066225       0.000452
 3809   0.015275    -8.769764     -8.269950       0.066225       0.000452
 3810   0.015277    -8.802149     -8.303951       0.066225       0.000452
 3811   0.015273    -8.835673     -8.338994       0.066225       0.000452
 3812   0.015268    -8.869514     -8.373887       0.066225       0.000452

---------------------- Local Time Stepping Summary ----------------------
MG level: 0 -> Min. DT: 0.000497806. Max. DT: 3.62867. CFL: 10.
MG level: 1 -> Min. DT: 0.000799998. Max. DT: 5.71113. CFL: 8.35917.
MG level: 2 -> Min. DT: 0.00155936. Max. DT: 8.31069. CFL: 7.39444.
-------------------------------------------------------------------------

----------------------- Residual Evolution Summary ----------------------
log10[Maximum residual]: -7.64422.
Maximum residual point 261, located at (0.583332, 0.0575168).
-------------------------------------------------------------------------

 Iter    Time(s)     Res[Rho]     Res[RhoE]      CL(Total)      CD(Total)
 3813   0.015260    -8.902395     -8.406906       0.066225       0.000452
 3814   0.015257    -8.932681     -8.436049       0.066225       0.000452
 3815   0.015254    -8.961176     -8.463068       0.066225       0.000452
 3816   0.015248    -8.991382     -8.492978       0.066225       0.000452
 3817   0.015243    -9.011035     -8.507725       0.066225       0.000452
 3818   0.015238    -9.035312     -8.530520       0.066225       0.000452
 3819   0.015234    -9.075684     -8.579176       0.066225       0.000452
 3820   0.015239    -9.111176     -8.615961       0.066225       0.000452
 3821   0.015234    -9.141969     -8.644780       0.066225       0.000452
 3822   0.015233    -9.176103     -8.679561       0.066225       0.000452
 3823   0.015228    -9.205361     -8.707018       0.066225       0.000452
 3824   0.015224    -9.237455     -8.739069       0.066225       0.000452
 3825   0.015221    -9.271250     -8.773811       0.066225       0.000452
 3826   0.015215    -9.304237     -8.806826       0.066225       0.000452
 3827   0.015209    -9.335895     -8.837611       0.066225       0.000452
 3828   0.015204    -9.362893     -8.861905       0.066225       0.000452
 3829   0.015238    -9.383277     -8.877783       0.066225       0.000452
 3830   0.015285    -9.412939     -8.909136       0.066225       0.000452
 3831   0.015341    -9.442109     -8.939465       0.066225       0.000452
 3832   0.015403    -9.471310     -8.969319       0.066225       0.000452
 3833   0.015451    -9.499571     -8.997179       0.066225       0.000452
 3834   0.015496    -9.532101     -9.031786       0.066225       0.000452
 3835   0.015537    -9.565516     -9.066945       0.066225       0.000452
 3836   0.015578    -9.595565     -9.096721       0.066225       0.000452
 3837   0.015614    -9.624795     -9.125649       0.066225       0.000452
 3838   0.015655    -9.651101     -9.150424       0.066225       0.000452
 3839   0.015696    -9.676240     -9.174502       0.066225       0.000452
 3840   0.015739    -9.698734     -9.195308       0.066225       0.000452
 3841   0.015780    -9.718450     -9.212825       0.066225       0.000452
 3842   0.015819    -9.738617     -9.231803       0.066225       0.000452
 3843   0.015862    -9.753207     -9.243080       0.066225       0.000452
 3844   0.015914    -9.767610     -9.255198       0.066225       0.000452
 3845   0.015953    -9.787913     -9.276399       0.066225       0.000452
 3846   0.015984    -9.806134     -9.293964       0.066225       0.000452
 3847   0.015978    -9.820340     -9.305708       0.066225       0.000452
 3848   0.015993    -9.838988     -9.324558       0.066225       0.000452
 3849   0.015984    -9.859947     -9.346397       0.066225       0.000452
 3850   0.015976    -9.871184     -9.353927       0.066225       0.000452
 3851   0.015967    -9.878869     -9.357902       0.066225       0.000452
 3852   0.015959    -9.892172     -9.370895       0.066225       0.000452

---------------------- Local Time Stepping Summary ----------------------
MG level: 0 -> Min. DT: 0.000497806. Max. DT: 3.62867. CFL: 10.
MG level: 1 -> Min. DT: 0.000799998. Max. DT: 5.71113. CFL: 8.35917.
MG level: 2 -> Min. DT: 0.00155936. Max. DT: 8.31069. CFL: 7.39444.
-------------------------------------------------------------------------

----------------------- Residual Evolution Summary ----------------------
log10[Maximum residual]: -8.6965.
Maximum residual point 436, located at (0.363661, 0.0609904).
-------------------------------------------------------------------------

 Iter    Time(s)     Res[Rho]     Res[RhoE]      CL(Total)      CD(Total)
 3853   0.015951    -9.903371     -9.380725       0.066224       0.000452
 3854   0.015950    -9.905500     -9.378382       0.066224       0.000452
 3855   0.015944    -9.909649     -9.380078       0.066224       0.000452
 3856   0.015945    -9.921729     -9.393076       0.066224       0.000452
 3857   0.015938    -9.932344     -9.403366       0.066224       0.000452
 3858   0.015931    -9.934009     -9.401513       0.066224       0.000452
 3859   0.015929    -9.938066     -9.403699       0.066224       0.000452
 3860   0.015930    -9.951138     -9.418266       0.066224       0.000452
 3861   0.015941    -9.965105     -9.433273       0.066224       0.000452
 3862   0.015978    -9.970225     -9.436010       0.066224       0.000452
 3863   0.015973    -9.976052     -9.440236       0.066224       0.000452
 3864   0.015970    -9.990931     -9.456863       0.066224       0.000452
 3865   0.015962   -10.007755     -9.475496       0.066224       0.000452
 3866   0.015957   -10.014849     -9.480644       0.066224       0.000452
 3867   0.015951   -10.022305     -9.486760       0.066224       0.000452
 3868   0.015942   -10.039989     -9.506903       0.066224       0.000452
 3869   0.015936   -10.057753     -9.526565       0.066224       0.000452
 3870   0.015930   -10.063549     -9.529836       0.066224       0.000452
 3871   0.015922   -10.073710     -9.539484       0.066224       0.000452
 3872   0.015919   -10.095917     -9.565631       0.066224       0.000452
 3873   0.015913   -10.109686     -9.579555       0.066224       0.000452
 3874   0.015907   -10.112726     -9.579195       0.066224       0.000452
 3875   0.015899   -10.129818     -9.598346       0.066224       0.000452
 3876   0.015893   -10.154340     -9.627434       0.066224       0.000452
 3877   0.015888   -10.157289     -9.626537       0.066224       0.000452
 3878   0.015880   -10.164061     -9.631403       0.066224       0.000452
 3879   0.015874   -10.192031     -9.665675       0.066224       0.000452
 3880   0.015868   -10.205457     -9.678892       0.066224       0.000452
 3881   0.015862   -10.202465     -9.670309       0.066224       0.000452
 3882   0.015859   -10.224041     -9.695588       0.066224       0.000452
 3883   0.015854   -10.252941     -9.730675       0.066224       0.000452
 3884   0.015847   -10.247116     -9.717733       0.066224       0.000452
 3885   0.015840   -10.255461     -9.724566       0.066224       0.000452
 3886   0.015833   -10.291788     -9.770662       0.066224       0.000452
 3887   0.015829   -10.297372     -9.772625       0.066224       0.000452
 3888   0.015824   -10.291725     -9.760383       0.066224       0.000452
 3889   0.015816   -10.321317     -9.796835       0.066224       0.000452
 3890   0.015816   -10.349796     -9.830859       0.066224       0.000452
 3891   0.015811   -10.336941     -9.808329       0.066224       0.000452
 3892   0.015810   -10.347938     -9.818676       0.066224       0.000452

---------------------- Local Time Stepping Summary ----------------------
MG level: 0 -> Min. DT: 0.000497806. Max. DT: 3.62867. CFL: 10.
MG level: 1 -> Min. DT: 0.000799998. Max. DT: 5.71113. CFL: 8.35917.
MG level: 2 -> Min. DT: 0.00155936. Max. DT: 8.31069. CFL: 7.39444.
-------------------------------------------------------------------------

----------------------- Residual Evolution Summary ----------------------
log10[Maximum residual]: -9.26339.
Maximum residual point 435, located at (0.333461, 0.060165).
-------------------------------------------------------------------------

 Iter    Time(s)     Res[Rho]     Res[RhoE]      CL(Total)      CD(Total)
 3893   0.015804   -10.387913     -9.870170       0.066224       0.000452
 3894   0.015800   -10.391524     -9.868965       0.066224       0.000452
 3895   0.015797   -10.381845     -9.851280       0.066224       0.000452
 3896   0.015789   -10.408828     -9.884281       0.066224       0.000452
 3897   0.015794   -10.440969     -9.923841       0.066224       0.000452
 3898   0.015789   -10.429473     -9.902904       0.066224       0.000452
 3899   0.015784   -10.429913     -9.899181       0.066224       0.000452
 3900   0.015778   -10.455956     -9.931596       0.066224       0.000452
 3901   0.015772   -10.470849     -9.947696       0.066224       0.000452
 3902   0.015766   -10.461791     -9.931568       0.066224       0.000452
 3903   0.015767   -10.467134     -9.935372       0.066224       0.000452

-------------------------- File Output Summary --------------------------
Writing comma-separated values (CSV) surface files.
Merging coordinates in the Master node.
Merging solution in the Master node.
Writing SU2 native restart file.
Writing the forces breakdown file.
-------------------------------------------------------------------------

 3904   0.015949   -10.479427     -9.949562       0.066224       0.000452
 3905   0.015945   -10.492111     -9.963482       0.066224       0.000452
 3906   0.015942   -10.490164     -9.957766       0.066224       0.000452
 3907   0.015939   -10.498078     -9.965249       0.066224       0.000452
 3908   0.015933   -10.510927     -9.979677       0.066224       0.000452
 3909   0.015944   -10.528881    -10.000262       0.066224       0.000452
 3910   0.015938   -10.527690     -9.995249       0.066224       0.000452
 3911   0.015951   -10.542795    -10.011780       0.066224       0.000452
 3912   0.015950   -10.562525    -10.034420       0.066224       0.000452
 3913   0.015944   -10.581050    -10.054973       0.066224       0.000452
 3914   0.015938   -10.573686    -10.041661       0.066224       0.000452
 3915   0.015931   -10.607348    -10.083192       0.066224       0.000452
 3916   0.015926   -10.629403    -10.107746       0.066224       0.000452
 3917   0.015920   -10.618039    -10.088366       0.066224       0.000452
 3918   0.015918   -10.643094    -10.117276       0.066224       0.000452
 3919   0.015911   -10.674162    -10.156890       0.066224       0.000452
 3920   0.015906   -10.655552    -10.128713       0.066224       0.000452
 3921   0.015899   -10.708135    -10.194976       0.066224       0.000452
 3922   0.015892   -10.733336    -10.222719       0.066224       0.000452
 3923   0.015887   -10.706582    -10.182408       0.066224       0.000452
 3924   0.015893   -10.762759    -10.254069       0.066224       0.000452
 3925   0.015892   -10.778265    -10.267826       0.066224       0.000452
 3926   0.015918   -10.758830    -10.235810       0.066224       0.000452
 3927   0.015912   -10.807788    -10.297871       0.066224       0.000452
 3928   0.015906   -10.814814    -10.300251       0.066224       0.000452
 3929   0.015901   -10.799676    -10.274324       0.066224       0.000452
 3930   0.015897   -10.841454    -10.327289       0.066224       0.000452
 3931   0.015891   -10.851687    -10.334596       0.066224       0.000452
 3932   0.015886   -10.844064    -10.318469       0.066224       0.000452

---------------------- Local Time Stepping Summary ----------------------
MG level: 0 -> Min. DT: 0.000497806. Max. DT: 3.62867. CFL: 10.
MG level: 1 -> Min. DT: 0.000799998. Max. DT: 5.71113. CFL: 8.35917.
MG level: 2 -> Min. DT: 0.00155936. Max. DT: 8.31069. CFL: 7.39444.
-------------------------------------------------------------------------

----------------------- Residual Evolution Summary ----------------------
log10[Maximum residual]: -9.72973.
Maximum residual point 436, located at (0.363661, 0.0609904).
-------------------------------------------------------------------------

 Iter    Time(s)     Res[Rho]     Res[RhoE]      CL(Total)      CD(Total)
 3933   0.015880   -10.881367    -10.365450       0.066224       0.000452
 3934   0.015874   -10.893641    -10.375805       0.066224       0.000452
 3935   0.015868   -10.888095    -10.362416       0.066224       0.000452
 3936   0.015876   -10.925133    -10.409989       0.066224       0.000452
 3937   0.015871   -10.934341    -10.415548       0.066224       0.000452
 3938   0.015870   -10.938385    -10.414563       0.066224       0.000452
 3939   0.015865   -10.965115    -10.447793       0.066224       0.000452
 3940   0.015863   -10.969643    -10.447538       0.066224       0.000452
 3941   0.015858   -10.992866    -10.473511       0.066224       0.000452
 3942   0.015853   -11.005804    -10.485305       0.066224       0.000452
 3943   0.015847   -10.997943    -10.469615       0.066224       0.000452
 3944   0.015842   -11.028284    -10.509088       0.066224       0.000452
 3945   0.015842   -11.036154    -10.514029       0.066224       0.000452
 3946   0.015839   -11.055250    -10.533597       0.066224       0.000452
 3947   0.015833   -11.082640    -10.566651       0.066224       0.000452
 3948   0.015831   -11.067041    -10.540178       0.066224       0.000452
 3949   0.015825   -11.092980    -10.572723       0.066224       0.000452
 3950   0.015821   -11.110338    -10.591620       0.066224       0.000452
 3951   0.015817   -11.143335    -10.629255       0.066224       0.000452
 3952   0.015811   -11.149319    -10.629845       0.066224       0.000452
 3953   0.015812   -11.178388    -10.663465       0.066224       0.000452
 3954   0.015836   -11.183049    -10.663383       0.066224       0.000452
 3955   0.015832   -11.192032    -10.670489       0.066224       0.000452
 3956   0.015827   -11.224827    -10.711979       0.066224       0.000452
 3957   0.015823   -11.233350    -10.715655       0.066224       0.000452
 3958   0.015820   -11.253274    -10.737139       0.066224       0.000452
 3959   0.015816   -11.266044    -10.748583       0.066224       0.000452
 3960   0.015812   -11.281393    -10.764407       0.066224       0.000452
 3961   0.015807   -11.301005    -10.785835       0.066224       0.000452
 3962   0.015802   -11.305197    -10.785738       0.066224       0.000452
 3963   0.015797   -11.334277    -10.821905       0.066224       0.000452
 3964   0.015794   -11.346004    -10.830548       0.066224       0.000452
 3965   0.015788   -11.373336    -10.862139       0.066224       0.000452
 3966   0.015783   -11.379235    -10.862609       0.066224       0.000452
 3967   0.015781   -11.407963    -10.897798       0.066224       0.000452
 3968   0.015778   -11.424207    -10.912529       0.066224       0.000452
 3969   0.015775   -11.428242    -10.910852       0.066224       0.000452
 3970   0.015771   -11.455398    -10.945347       0.066224       0.000452
 3971   0.015768   -11.467190    -10.954285       0.066224       0.000452
 3972   0.015766   -11.469249    -10.951057       0.066224       0.000452

---------------------- Local Time Stepping Summary ----------------------
MG level: 0 -> Min. DT: 0.000497806. Max. DT: 3.62867. CFL: 10.
MG level: 1 -> Min. DT: 0.000799998. Max. DT: 5.71113. CFL: 8.35917.
MG level: 2 -> Min. DT: 0.00155936. Max. DT: 8.31069. CFL: 7.39444.
-------------------------------------------------------------------------

----------------------- Residual Evolution Summary ----------------------
log10[Maximum residual]: -10.3536.
Maximum residual point 378, located at (0.394398, 0.0615129).
-------------------------------------------------------------------------

 Iter    Time(s)     Res[Rho]     Res[RhoE]      CL(Total)      CD(Total)
 3973   0.015760   -11.497311    -10.987564       0.066224       0.000452
 3974   0.015757   -11.503876    -10.989643       0.066224       0.000452
 3975   0.015770   -11.524458    -11.012413       0.066224       0.000452
 3976   0.015765   -11.543985    -11.033376       0.066224       0.000452
 3977   0.015768   -11.529867    -11.007134       0.066224       0.000452
 3978   0.015769   -11.558516    -11.044662       0.066224       0.000452
 3979   0.015766   -11.582364    -11.073248       0.066224       0.000452
 3980   0.015761   -11.570969    -11.049423       0.066224       0.000452
 3981   0.015756   -11.598596    -11.083948       0.066224       0.000452
 3982   0.015754   -11.626938    -11.119163       0.066224       0.000452
 3983   0.015751   -11.618301    -11.098662       0.066224       0.000452
 3984   0.015747   -11.651043    -11.139735       0.066224       0.000452
 3985   0.015745   -11.674719    -11.166546       0.066224       0.000452
 3986   0.015739   -11.664780    -11.144477       0.066224       0.000452
 3987   0.015751   -11.701875    -11.192329       0.066224       0.000452
 3988   0.015755   -11.722609    -11.214230       0.066224       0.000452
 3989   0.015751   -11.706730    -11.184349       0.066224       0.000452
 3990   0.015760   -11.746075    -11.236000       0.066224       0.000452
 3991   0.015775   -11.773056    -11.267650       0.066224       0.000452
 3992   0.015782   -11.758899    -11.238995       0.066224       0.000452
 3993   0.015778   -11.801267    -11.293874       0.066224       0.000452
 3994   0.015775   -11.823913    -11.317910       0.066224       0.000452
 3995   0.015771   -11.815507    -11.297039       0.066224       0.000452
 3996   0.015768   -11.860084    -11.354977       0.066224       0.000452
 3997   0.015765   -11.877309    -11.369717       0.066224       0.000452
 3998   0.015762   -11.873379    -11.354751       0.066224       0.000452
 3999   0.015758   -11.910714    -11.402260       0.066224       0.000452
 4000   0.015754   -11.910475    -11.393679       0.066224       0.000452
 4001   0.015752   -11.919436    -11.399169       0.066224       0.000452
 4002   0.015747   -11.959957    -11.452527       0.066224       0.000452
 4003   0.015744   -11.950831    -11.431116       0.066224       0.000452
 4004   0.015739   -11.970721    -11.451703       0.066224       0.000452
 4005   0.015736   -12.006984    -11.497439       0.066224       0.000452
 4006   0.015733   -12.008759    -11.490430       0.066224       0.000452
 4007   0.015731   -12.044911    -11.533355       0.066224       0.000452
 4008   0.015728   -12.075148    -11.566912       0.066224       0.000452
 4009   0.015724   -12.079527    -11.562079       0.066224       0.000452
 4010   0.015721   -12.102132    -11.586042       0.066224       0.000452
 4011   0.015718   -12.113518    -11.594473       0.066224       0.000452
 4012   0.015714   -12.152018    -11.642256       0.066224       0.000452

---------------------- Local Time Stepping Summary ----------------------
MG level: 0 -> Min. DT: 0.000497806. Max. DT: 3.62867. CFL: 10.
MG level: 1 -> Min. DT: 0.000799998. Max. DT: 5.71113. CFL: 8.35917.
MG level: 2 -> Min. DT: 0.00155936. Max. DT: 8.31069. CFL: 7.39444.
-------------------------------------------------------------------------

----------------------- Residual Evolution Summary ----------------------
log10[Maximum residual]: -10.9869.
Maximum residual point 436, located at (0.363661, 0.0609904).
-------------------------------------------------------------------------

 Iter    Time(s)     Res[Rho]     Res[RhoE]      CL(Total)      CD(Total)
 4013   0.015709   -12.162754    -11.647023       0.066224       0.000452
 4014   0.015705   -12.176541    -11.657112       0.066224       0.000452
 4015   0.015702   -12.199554    -11.683015       0.066224       0.000452
 4016   0.015698   -12.230656    -11.718951       0.066224       0.000452
 4017   0.015694   -12.228613    -11.707455       0.066224       0.000452
 4018   0.015692   -12.268279    -11.756535       0.066224       0.000452
 4019   0.015691   -12.273765    -11.755228       0.066224       0.000452
 4020   0.015688   -12.293838    -11.775226       0.066224       0.000452
 4021   0.015686   -12.306506    -11.786217       0.066224       0.000452
 4022   0.015684   -12.347705    -11.837518       0.066224       0.000452
 4023   0.015681   -12.378494    -11.869668       0.066224       0.000452
 4024   0.015678   -12.378334    -11.858239       0.066224       0.000452
 4025   0.015675   -12.386139    -11.861835       0.066224       0.000452
 4026   0.015671   -12.419945    -11.904436       0.066224       0.000452
 4027   0.015670   -12.453365    -11.942682       0.066224       0.000452
 4028   0.015666   -12.478330    -11.966083       0.066224       0.000452
 4029   0.015663   -12.477022    -11.954517       0.066224       0.000452
 4030   0.015661   -12.495584    -11.974408       0.066224       0.000452
 4031   0.015659   -12.526895    -12.012385       0.066224       0.000452
 4032   0.015655   -12.559819    -12.049655       0.066224       0.000452

-------------------------- File Output Summary --------------------------
Writing comma-separated values (CSV) surface files.
Merging coordinates in the Master node.
Merging solution in the Master node.
Writing SU2 native restart file.
Writing the forces breakdown file.
-------------------------------------------------------------------------

History file, closed.

------------------------- Solver Postprocessing -------------------------
Deleted CNumerics container.
Deleted CIntegration container.
Deleted CSolver container.
Deleted CIteration container.
Deleted CInterpolator container.
Deleted CTransfer container.
Deleted CGeometry container.
Deleted CFreeFormDefBox class.
Deleted CSurfaceMovement class.
Deleted CVolumetricMovement class.
Deleted CConfig container.
Deleted COutput class.
-------------------------------------------------------------------------

Completed in 6.002540 seconds on 8 cores.

------------------------- Exit Success (SU2_CFD) ------------------------


-------------------------------------------------------------------------
|    ___ _   _ ___                                                      |
|   / __| | | |_  )   Release 5.0.0  "Raven"                            |
|   \__ \ |_| |/ /                                                      |
|   |___/\___//___|   Suite (Solution Exporting Code)                   |
|                                                                       |
-------------------------------------------------------------------------
| SU2 Original Developers: Dr. Francisco D. Palacios.                   |
|                          Dr. Thomas D. Economon.                      |
-------------------------------------------------------------------------
| SU2 Developers:                                                       |
| - Prof. Juan J. Alonso's group at Stanford University.                |
| - Prof. Piero Colonna's group at Delft University of Technology.      |
| - Prof. Nicolas R. Gauger's group at Kaiserslautern U. of Technology. |
| - Prof. Alberto Guardone's group at Polytechnic University of Milan.  |
| - Prof. Rafael Palacios' group at Imperial College London.            |
| - Prof. Edwin van der Weide's group at the University of Twente.      |
| - Prof. Vincent Terrapon's group at the University of Liege.          |
-------------------------------------------------------------------------
| Copyright (C) 2012-2017 SU2, the open-source CFD code.                |
|                                                                       |
| SU2 is free software; you can redistribute it and/or                  |
| modify it under the terms of the GNU Lesser General Public            |
| License as published by the Free Software Foundation; either          |
| version 2.1 of the License, or (at your option) any later version.    |
|                                                                       |
| SU2 is distributed in the hope that it will be useful,                |
| but WITHOUT ANY WARRANTY; without even the implied warranty of        |
| MERCHANTABILITY or FITNESS FOR A PARTICULAR PURPOSE. See the GNU      |
| Lesser General Public License for more details.                       |
|                                                                       |
| You should have received a copy of the GNU Lesser General Public      |
| License along with SU2. If not, see <http://www.gnu.org/licenses/>.   |
-------------------------------------------------------------------------

------------------------ Physical Case Definition -----------------------
Input mesh file name: mesh_NACA0012_inv_deform.su2

-------------------------- Output Information ---------------------------
The output file format is Tecplot ASCII (.dat).
Flow variables file name: flow.

------------------- Config File Boundary Information --------------------
Euler wall boundary marker(s): airfoil.
Far-field boundary marker(s): farfield.

---------------------- Read Grid File Information -----------------------
Two dimensional problem.
5233 points before parallel partitioning.
Performing linear partitioning of the grid nodes.
10216 interior elements before parallel partitioning.
Calling the partitioning functions.
Building the graph adjacency structure.
Distributing elements across all ranks.
2 surface markers.
200 boundary elements in index 0 (Marker = airfoil).
50 boundary elements in index 1 (Marker = farfield).
Calling ParMETIS...
Finished partitioning using ParMETIS (547 edge cuts).
Communicating partition data and creating halo layers.
10763 interior elements including halo cells. 
10763 triangles.
5796 vertices including ghost points. 
Establishing MPI communication patterns.
Identify vertices.

------------------------- Solution Postprocessing -----------------------
Reading and storing the solution from restart_flow.dat.
Merging connectivities in the Master node.
Merging solution in the Master node.
Writing Tecplot ASCII file (volume grid).
Writing Tecplot ASCII file (surface grid).

Completed in 0.106424 seconds on 8 cores.

------------------------- Exit Success (SU2_SOL) ------------------------

