
-------------------------------------------------------------------------
|    ___ _   _ ___                                                      |
|   / __| | | |_  )   Release 5.0.0  "Raven"                            |
|   \__ \ |_| |/ /                                                      |
|   |___/\___//___|   Suite (Computational Fluid Dynamics Code)         |
|                                                                       |
-------------------------------------------------------------------------
| SU2 Original Developers: Dr. Francisco D. Palacios.                   |
|                          Dr. Thomas D. Economon.                      |
-------------------------------------------------------------------------
| SU2 Developers:                                                       |
| - Prof. Juan J. Alonso's group at Stanford University.                |
| - Prof. Piero Colonna's group at Delft University of Technology.      |
| - Prof. Nicolas R. Gauger's group at Kaiserslautern U. of Technology. |
| - Prof. Alberto Guardone's group at Polytechnic University of Milan.  |
| - Prof. Rafael Palacios' group at Imperial College London.            |
| - Prof. Edwin van der Weide's group at the University of Twente.      |
| - Prof. Vincent Terrapon's group at the University of Liege.          |
-------------------------------------------------------------------------
| Copyright (C) 2012-2017 SU2, the open-source CFD code.                |
|                                                                       |
| SU2 is free software; you can redistribute it and/or                  |
| modify it under the terms of the GNU Lesser General Public            |
| License as published by the Free Software Foundation; either          |
| version 2.1 of the License, or (at your option) any later version.    |
|                                                                       |
| SU2 is distributed in the hope that it will be useful,                |
| but WITHOUT ANY WARRANTY; without even the implied warranty of        |
| MERCHANTABILITY or FITNESS FOR A PARTICULAR PURPOSE. See the GNU      |
| Lesser General Public License for more details.                       |
|                                                                       |
| You should have received a copy of the GNU Lesser General Public      |
| License along with SU2. If not, see <http://www.gnu.org/licenses/>.   |
-------------------------------------------------------------------------

------------------------ Physical Case Definition -----------------------
Compressible Euler equations.
Mach number: 0.8.
Angle of attack (AoA): 1.25 deg, and angle of sideslip (AoS): 0 deg.
Read flow solution from: solution_flow.dat.
Non-Dimensional simulation (P=1.0, Rho=1.0, T=1.0 at the farfield).
The reference length/area (force coefficient) is 1.
The reference length (moment computation) is 1.
Reference origin (moment computation) is (0.25, 0, 0).
Surface(s) where the force coefficients are evaluated: airfoil.
Surface(s) plotted in the output file: airfoil.
Surface(s) affected by the design variables: airfoil.
Input mesh file name: mesh_NACA0012_inv_deform.su2

---------------------- Space Numerical Integration ----------------------
Jameson-Schmidt-Turkel scheme for the flow inviscid terms.
JST viscous coefficients (1st, 2nd & 4th): 0.15, 0.5, 0.02.
The method includes a grid stretching correction (p = 0.3).
Second order integration.
Gradient computation using Green-Gauss theorem.

---------------------- Time Numerical Integration -----------------------
Local time stepping (steady state simulation).
Euler implicit method for the flow equations.
V Multigrid Cycle, with 2 multigrid levels.
Damping factor for the residual restriction: 1.
Damping factor for the correction prolongation: 1.
No CFL adaptation.
Multigrid Level:                       0     1     2
Courant-Friedrichs-Lewy number:       10
MG PreSmooth coefficients:             1     2     3
MG PostSmooth coefficients:            0     0     0
MG CorrecSmooth coefficients:          0     0     0

------------------------- Convergence Criteria --------------------------
Maximum number of iterations: 1000.
Reduce the density residual 6 orders of magnitude.
The minimum bound for the density residual is 10^(-10).
Start convergence criteria at iteration 10.

-------------------------- Output Information ---------------------------
Writing a flow solution every 250 iterations.
Writing the convergence history every 1 iterations.
The output file format is Paraview ASCII (.vtk).
Convergence history file name: history_direct.
Forces breakdown file name: forces_breakdown.dat.
Surface flow coefficients file name: surface_flow.
Flow variables file name: flow.
Restart flow file name: restart_flow.dat.

------------------- Config File Boundary Information --------------------
Euler wall boundary marker(s): airfoil.
Far-field boundary marker(s): farfield.

---------------------- Read Grid File Information -----------------------
Two dimensional problem.
5233 points.
2 surface markers.
200 boundary elements in index 0 (Marker = airfoil).
50 boundary elements in index 1 (Marker = farfield).
10216 triangles.

------------------------- Geometry Preprocessing ------------------------
Setting point connectivity.
Renumbering points (Reverse Cuthill McKee Ordering).
Recomputing point connectivity.
Setting element connectivity.
Checking the numerical grid orientation.
Identifying edges and vertices.
Computing centers of gravity.
Setting the control volume structure.
Area of the computational grid: 1.25e+03.
Searching for the closest normal neighbors to the surfaces.
Compute the surface curvature.
Max K: 7.84e+03. Mean K: 35.6. Standard deviation K: 494.
Checking for periodicity.
Setting the multigrid structure.
MG level: 0 -> CVs: 5233. Agglomeration rate 1/1.00. CFL 10.
MG level: 1 -> CVs: 1533. Agglomeration rate 1/3.41. CFL 8.12.
MG level: 2 -> CVs: 443. Agglomeration rate 1/3.46. CFL 6.55.
Computing wall distances.
Wetted area = 2.03 m.
Area projection in the x-plane = 0.107 m, y-plane = 1 m.

------------------------- Driver information --------------------------
A Fluid driver has been instantiated.

------------------------ Iteration Preprocessing ------------------------
Zone 1: Euler/Navier-Stokes/RANS flow iteration.

------------------------- Solver Preprocessing --------------------------
Inviscid flow: Computing density based on free-stream
temperature and pressure using the ideal gas law.
Force coefficients computed using free-stream values.
-- Input conditions:
Fluid Model: STANDARD_AIR 
Specific gas constant: 287.058 N.m/kg.K.
Specific gas constant (non-dim): 1
Specific Heat Ratio: 1.4
Free-stream static pressure: 101325 Pa.
Free-stream total pressure: 154454 Pa.
Free-stream temperature: 288.15 K.
Free-stream density: 1.22498 kg/m^3.
Free-stream velocity: (272.173, 5.93883) m/s. Magnitude: 272.238 m/s (529.186 KTS).
Free-stream total energy per unit mass: 243846 m^2/s^2.
-- Reference values:
Reference specific gas constant: 287.058 N.m/kg.K.
Reference pressure: 101325 Pa.
Reference temperature: 288.15 K.
Reference density: 1.22498 kg/m^3.
Reference velocity: 287.603 m/s.
Reference energy per unit mass: 82715.8 m^2/s^2.
-- Resulting non-dimensional state:
Mach number (non-dim): 0.8
Specific gas constant (non-dim): 1
Free-stream temperature (non-dim): 1
Free-stream pressure (non-dim): 1
Free-stream density (non-dim): 1
Free-stream velocity (non-dim): (0.946348, 0.0206494). Magnitude: 0.946573
Free-stream total energy per unit mass (non-dim): 2.948

Initialize Jacobian structure (Euler). MG level: 0.
Initialize Jacobian structure (Euler). MG level: 1.
Initialize Jacobian structure (Euler). MG level: 2.

----------------- Integration and Numerics Preprocessing ----------------
Integration Preprocessing.
Numerics Preprocessing.

------------------------------ Begin Solver -----------------------------

---------------------- Local Time Stepping Summary ----------------------
MG level: 0 -> Min. DT: 0.000497805. Max. DT: 3.62864. CFL: 10.
MG level: 1 -> Min. DT: 0.000784442. Max. DT: 5.54681. CFL: 8.11871.
MG level: 2 -> Min. DT: 0.00104895. Max. DT: 7.4145. CFL: 6.5465.
-------------------------------------------------------------------------

----------------------- Residual Evolution Summary ----------------------
log10[Maximum residual]: -5.28792.
Maximum residual point 105, located at (0.00752, 0.0115839).
-------------------------------------------------------------------------

 Iter    Time(s)     Res[Rho]     Res[RhoE]      CL(Total)      CD(Total)
 2825   0.055107    -6.390613     -5.794233       0.066817       0.000653
 2826   0.053167    -6.454127     -5.851587       0.066762       0.000584
 2827   0.051742    -6.469119     -5.872149       0.066717       0.000560
 2828   0.050926    -6.438314     -5.837657       0.066659       0.000536
 2829   0.051137    -6.382606     -5.779952       0.066602       0.000518
 2830   0.051514    -6.348987     -5.748162       0.066539       0.000503
 2831   0.051139    -6.333950     -5.735663       0.066474       0.000493
 2832   0.051013    -6.322846     -5.725817       0.066413       0.000485
 2833   0.050700    -6.314628     -5.718366       0.066358       0.000480
 2834   0.050531    -6.305054     -5.708560       0.066309       0.000475
 2835   0.050447    -6.295978     -5.698869       0.066263       0.000470
 2836   0.050490    -6.296063     -5.699161       0.066221       0.000467
 2837   0.050649    -6.304531     -5.708220       0.066181       0.000464
 2838   0.050543    -6.319181     -5.723417       0.066144       0.000462
 2839   0.050422    -6.337908     -5.742237       0.066109       0.000460
 2840   0.050317    -6.358393     -5.761814       0.066077       0.000457
 2841   0.050267    -6.378439     -5.779556       0.066046       0.000455
 2842   0.050310    -6.397154     -5.794772       0.066017       0.000453
 2843   0.050205    -6.416120     -5.809944       0.065989       0.000451
 2844   0.050273    -6.438935     -5.829847       0.065963       0.000449
 2845   0.050236    -6.469834     -5.859763       0.065937       0.000448
 2846   0.050251    -6.510992     -5.902616       0.065911       0.000446
 2847   0.050188    -6.559201     -5.955308       0.065887       0.000445
 2848   0.050117    -6.607243     -6.009770       0.065864       0.000444
 2849   0.050061    -6.648063     -6.057354       0.065842       0.000443
 2850   0.050123    -6.679072     -6.094281       0.065821       0.000443
 2851   0.050071    -6.700772     -6.120695       0.065803       0.000444
 2852   0.050095    -6.715090     -6.138766       0.065786       0.000444
 2853   0.050089    -6.723907     -6.150627       0.065771       0.000445
 2854   0.050091    -6.729319     -6.158515       0.065756       0.000445
 2855   0.050052    -6.732333     -6.163192       0.065743       0.000446
 2856   0.050029    -6.734142     -6.165837       0.065731       0.000446
 2857   0.050071    -6.736767     -6.168966       0.065720       0.000447
 2858   0.050185    -6.741081     -6.173793       0.065709       0.000447
 2859   0.050142    -6.746986     -6.180308       0.065699       0.000447
 2860   0.050105    -6.754959     -6.189165       0.065689       0.000448
 2861   0.050142    -6.766018     -6.201685       0.065679       0.000448
 2862   0.050107    -6.781201     -6.219250       0.065670       0.000448
 2863   0.050067    -6.801315     -6.243078       0.065661       0.000448
 2864   0.050100    -6.826316     -6.273428       0.065653       0.000449

---------------------- Local Time Stepping Summary ----------------------
MG level: 0 -> Min. DT: 0.000497801. Max. DT: 3.62864. CFL: 10.
MG level: 1 -> Min. DT: 0.000784451. Max. DT: 5.54682. CFL: 8.11871.
MG level: 2 -> Min. DT: 0.00104894. Max. DT: 7.41451. CFL: 6.5465.
-------------------------------------------------------------------------

----------------------- Residual Evolution Summary ----------------------
log10[Maximum residual]: -5.81993.
Maximum residual point 1906, located at (0.603245, 0.284601).
-------------------------------------------------------------------------

 Iter    Time(s)     Res[Rho]     Res[RhoE]      CL(Total)      CD(Total)
 2865   0.050064    -6.854980     -6.309010       0.065645       0.000449
 2866   0.050246    -6.885062     -6.346882       0.065637       0.000450
 2867   0.050497    -6.913821     -6.383028       0.065629       0.000450
 2868   0.050786    -6.938751     -6.413804       0.065622       0.000451
 2869   0.050943    -6.956910     -6.435473       0.065616       0.000451
 2870   0.050980    -6.964778     -6.443035       0.065610       0.000451
 2871   0.051205    -6.965943     -6.441477       0.065604       0.000451
 2872   0.051358    -6.967721     -6.441484       0.065600       0.000452
 2873   0.051345    -6.972408     -6.446044       0.065595       0.000452
 2874   0.051273    -6.979665     -6.454250       0.065591       0.000452
 2875   0.051245    -6.983941     -6.457603       0.065588       0.000452
 2876   0.051258    -6.976848     -6.445432       0.065585       0.000452
 2877   0.051302    -6.971344     -6.436878       0.065582       0.000452
 2878   0.051269    -6.968767     -6.432550       0.065579       0.000452
 2879   0.051245    -6.968296     -6.430582       0.065577       0.000452
 2880   0.051263    -6.971693     -6.433552       0.065576       0.000452
 2881   0.051251    -6.977565     -6.439674       0.065574       0.000451
 2882   0.051202    -6.985375     -6.448174       0.065573       0.000451
 2883   0.051186    -6.994687     -6.458475       0.065571       0.000451
 2884   0.051144    -7.005273     -6.470312       0.065570       0.000451
 2885   0.051117    -7.017163     -6.483762       0.065570       0.000451
 2886   0.051078    -7.030509     -6.499042       0.065569       0.000451
 2887   0.051034    -7.045505     -6.516400       0.065568       0.000451
 2888   0.051009    -7.062279     -6.535993       0.065568       0.000451
 2889   0.050981    -7.080735     -6.557707       0.065568       0.000451
 2890   0.050963    -7.100321     -6.580788       0.065567       0.000451
 2891   0.050938    -7.119968     -6.603745       0.065567       0.000452
 2892   0.050911    -7.137968     -6.624139       0.065567       0.000452
 2893   0.050862    -7.151421     -6.637802       0.065567       0.000452
 2894   0.050820    -7.160130     -6.646093       0.065567       0.000452
 2895   0.050818    -7.176844     -6.666075       0.065567       0.000452
 2896   0.050846    -7.172371     -6.654075       0.065567       0.000452
 2897   0.050884    -7.163850     -6.638510       0.065567       0.000452
 2898   0.050861    -7.177675     -6.654806       0.065567       0.000452
 2899   0.050833    -7.185519     -6.661941       0.065566       0.000452
 2900   0.050814    -7.196222     -6.671974       0.065566       0.000452
 2901   0.050784    -7.207981     -6.683454       0.065566       0.000452
 2902   0.050765    -7.218802     -6.693652       0.065565       0.000452
 2903   0.050740    -7.229353     -6.703334       0.065565       0.000452
 2904   0.050703    -7.238856     -6.711502       0.065564       0.000452

---------------------- Local Time Stepping Summary ----------------------
MG level: 0 -> Min. DT: 0.000497802. Max. DT: 3.62864. CFL: 10.
MG level: 1 -> Min. DT: 0.000784445. Max. DT: 5.54682. CFL: 8.11871.
MG level: 2 -> Min. DT: 0.00104893. Max. DT: 7.41451. CFL: 6.5465.
-------------------------------------------------------------------------

----------------------- Residual Evolution Summary ----------------------
log10[Maximum residual]: -6.0742.
Maximum residual point 1183, located at (0.596864, 0.131505).
-------------------------------------------------------------------------

 Iter    Time(s)     Res[Rho]     Res[RhoE]      CL(Total)      CD(Total)
 2905   0.050705    -7.248301     -6.719672       0.065563       0.000452
 2906   0.050686    -7.258435     -6.728896       0.065563       0.000452
 2907   0.050656    -7.270141     -6.740293       0.065562       0.000452
 2908   0.050670    -7.283858     -6.754405       0.065561       0.000452
 2909   0.050700    -7.299667     -6.771306       0.065561       0.000452
 2910   0.050678    -7.317505     -6.790899       0.065560       0.000452
 2911   0.050660    -7.337135     -6.812838       0.065559       0.000452
 2912   0.050639    -7.358292     -6.836741       0.065558       0.000452
 2913   0.050628    -7.380629     -6.862114       0.065558       0.000452
 2914   0.050627    -7.403686     -6.888298       0.065557       0.000452
 2915   0.050613    -7.427029     -6.914673       0.065556       0.000452
 2916   0.050635    -7.449932     -6.940169       0.065555       0.000452
 2917   0.050643    -7.470645     -6.962177       0.065554       0.000452
 2918   0.050638    -7.485045     -6.974855       0.065554       0.000452
 2919   0.050613    -7.492863     -6.978843       0.065553       0.000452
 2920   0.050602    -7.503320     -6.987612       0.065552       0.000452
 2921   0.050583    -7.517167     -7.002395       0.065552       0.000452
 2922   0.050565    -7.535145     -7.022723       0.065551       0.000452
 2923   0.050547    -7.554328     -7.043706       0.065551       0.000452
 2924   0.050540    -7.572507     -7.061924       0.065550       0.000452
 2925   0.050535    -7.587665     -7.075121       0.065550       0.000452
 2926   0.050522    -7.602033     -7.087271       0.065550       0.000452
 2927   0.050518    -7.617042     -7.100628       0.065549       0.000452
 2928   0.050502    -7.633204     -7.115787       0.065549       0.000452
 2929   0.050479    -7.650842     -7.132998       0.065549       0.000452
 2930   0.050453    -7.669522     -7.151517       0.065549       0.000452
 2931   0.050430    -7.688499     -7.170254       0.065548       0.000452
 2932   0.050410    -7.707107     -7.188329       0.065548       0.000452
 2933   0.050406    -7.725050     -7.205441       0.065548       0.000452
 2934   0.050387    -7.742497     -7.221944       0.065548       0.000452
 2935   0.050369    -7.760018     -7.238699       0.065548       0.000452
 2936   0.050407    -7.778292     -7.256648       0.065548       0.000452
 2937   0.050459    -7.797875     -7.276502       0.065548       0.000452
 2938   0.050442    -7.819061     -7.298585       0.065548       0.000452
 2939   0.050424    -7.841868     -7.322831       0.065548       0.000452
 2940   0.050400    -7.866112     -7.348899       0.065548       0.000452
 2941   0.050408    -7.891485     -7.376305       0.065548       0.000452
 2942   0.050385    -7.917645     -7.404554       0.065548       0.000452
 2943   0.050373    -7.944279     -7.433215       0.065548       0.000452
 2944   0.050364    -7.971135     -7.461948       0.065548       0.000452

---------------------- Local Time Stepping Summary ----------------------
MG level: 0 -> Min. DT: 0.000497804. Max. DT: 3.62864. CFL: 10.
MG level: 1 -> Min. DT: 0.000784444. Max. DT: 5.54682. CFL: 8.11871.
MG level: 2 -> Min. DT: 0.00104893. Max. DT: 7.41451. CFL: 6.5465.
-------------------------------------------------------------------------

----------------------- Residual Evolution Summary ----------------------
log10[Maximum residual]: -6.74892.
Maximum residual point 407, located at (0.551934, 0.0590875).
-------------------------------------------------------------------------

 Iter    Time(s)     Res[Rho]     Res[RhoE]      CL(Total)      CD(Total)
 2945   0.050365    -7.998024     -7.490514       0.065548       0.000452
 2946   0.050374    -8.024853     -7.518808       0.065548       0.000452
 2947   0.050371    -8.051682     -7.546951       0.065548       0.000452
 2948   0.050384    -8.078761     -7.575333       0.065548       0.000452
 2949   0.050429    -8.106492     -7.604536       0.065548       0.000452
 2950   0.050418    -8.135293     -7.635134       0.065548       0.000452
 2951   0.050403    -8.165459     -7.667474       0.065548       0.000452
 2952   0.050415    -8.197060     -7.701538       0.065548       0.000452
 2953   0.050402    -8.229929     -7.736949       0.065548       0.000452
 2954   0.050387    -8.263454     -7.772714       0.065548       0.000452
 2955   0.050372    -8.296717     -7.807541       0.065548       0.000452
 2956   0.050386    -8.329344     -7.841082       0.065548       0.000452
 2957   0.050378    -8.361114     -7.873158       0.065548       0.000452
 2958   0.050366    -8.392173     -7.904140       0.065548       0.000452
 2959   0.050352    -8.419540     -7.929542       0.065548       0.000452
 2960   0.050340    -8.447551     -7.957718       0.065548       0.000452
 2961   0.050342    -8.426694     -7.917038       0.065548       0.000452
 2962   0.050324    -8.472437     -7.976882       0.065548       0.000452
 2963   0.050319    -8.499297     -8.005284       0.065548       0.000452
 2964   0.050312    -8.510331     -8.006796       0.065548       0.000452
 2965   0.050351    -8.539754     -8.036264       0.065548       0.000452
 2966   0.050507    -8.571922     -8.071900       0.065548       0.000452
 2967   0.050587    -8.602545     -8.105065       0.065548       0.000452
 2968   0.050613    -8.624427     -8.124259       0.065548       0.000452
 2969   0.050629    -8.653277     -8.154945       0.065548       0.000452
 2970   0.050654    -8.664063     -8.159913       0.065548       0.000452
 2971   0.050674    -8.677058     -8.167280       0.065548       0.000452
 2972   0.050675    -8.689824     -8.174959       0.065548       0.000452
 2973   0.050664    -8.701906     -8.183001       0.065548       0.000452
 2974   0.050650    -8.715302     -8.193631       0.065548       0.000452
 2975   0.050666    -8.729490     -8.205643       0.065548       0.000452
 2976   0.050682    -8.744065     -8.218224       0.065548       0.000452
 2977   0.050671    -8.757803     -8.229637       0.065548       0.000452
 2978   0.050664    -8.770317     -8.239447       0.065548       0.000452
 2979   0.050649    -8.781413     -8.247519       0.065548       0.000452
 2980   0.050647    -8.791525     -8.254524       0.065548       0.000452
 2981   0.050631    -8.801210     -8.261225       0.065548       0.000452
 2982   0.050623    -8.810956     -8.268230       0.065548       0.000452
 2983   0.050607    -8.821027     -8.275827       0.065548       0.000452
 2984   0.050596    -8.831498     -8.284065       0.065548       0.000452

---------------------- Local Time Stepping Summary ----------------------
MG level: 0 -> Min. DT: 0.000497804. Max. DT: 3.62864. CFL: 10.
MG level: 1 -> Min. DT: 0.000784444. Max. DT: 5.54682. CFL: 8.11871.
MG level: 2 -> Min. DT: 0.00104893. Max. DT: 7.41451. CFL: 6.5465.
-------------------------------------------------------------------------

----------------------- Residual Evolution Summary ----------------------
log10[Maximum residual]: -7.61662.
Maximum residual point 362, located at (0.488643, 0.0611223).
-------------------------------------------------------------------------

 Iter    Time(s)     Res[Rho]     Res[RhoE]      CL(Total)      CD(Total)
 2985   0.050592    -8.842323     -8.292856       0.065548       0.000452
 2986   0.050583    -8.853420     -8.302083       0.065548       0.000452
 2987   0.050581    -8.864731     -8.311672       0.065548       0.000452
 2988   0.050587    -8.876244     -8.321606       0.065548       0.000452
 2989   0.050576    -8.887976     -8.331905       0.065548       0.000452
 2990   0.050571    -8.899952     -8.342592       0.065548       0.000452
 2991   0.050559    -8.912185     -8.353674       0.065548       0.000452
 2992   0.050543    -8.924671     -8.365137       0.065548       0.000452
 2993   0.050526    -8.937390     -8.376950       0.065548       0.000452
 2994   0.050514    -8.950321     -8.389079       0.065548       0.000452
 2995   0.050512    -8.963444     -8.401500       0.065548       0.000452
 2996   0.050521    -8.976751     -8.414197       0.065549       0.000452
 2997   0.050517    -8.990236     -8.427167       0.065549       0.000452
 2998   0.050506    -9.003903     -8.440410       0.065549       0.000452
 2999   0.050491    -9.017755     -8.453932       0.065549       0.000452
 3000   0.050486    -9.031799     -8.467738       0.065549       0.000452
 3001   0.050473    -9.046040     -8.481833       0.065549       0.000452
 3002   0.050459    -9.060481     -8.496220       0.065549       0.000452
 3003   0.050453    -9.075126     -8.510901       0.065549       0.000452
 3004   0.050444    -9.089976     -8.525874       0.065549       0.000452
 3005   0.050451    -9.105026     -8.541135       0.065549       0.000452
 3006   0.050486    -9.120272     -8.556672       0.065549       0.000452
 3007   0.050484    -9.135701     -8.572470       0.065549       0.000452
 3008   0.050471    -9.151301     -8.588510       0.065549       0.000452
 3009   0.050461    -9.167056     -8.604772       0.065549       0.000452
 3010   0.050453    -9.182951     -8.621233       0.065549       0.000452
 3011   0.050441    -9.198972     -8.637874       0.065549       0.000452
 3012   0.050430    -9.215105     -8.654678       0.065549       0.000452
 3013   0.050418    -9.231343     -8.671633       0.065549       0.000452
 3014   0.050408    -9.247681     -8.688733       0.065549       0.000452
 3015   0.050426    -9.264117     -8.705975       0.065549       0.000452
 3016   0.050456    -9.280654     -8.723361       0.065549       0.000452
 3017   0.050449    -9.297296     -8.740897       0.065549       0.000452
 3018   0.050438    -9.314050     -8.758591       0.065549       0.000452
 3019   0.050431    -9.330923     -8.776451       0.065549       0.000452
 3020   0.050427    -9.347921     -8.794486       0.065549       0.000452
 3021   0.050444    -9.365051     -8.812703       0.065549       0.000452
 3022   0.050434    -9.382316     -8.831104       0.065549       0.000452
 3023   0.050432    -9.399715     -8.849689       0.065549       0.000452
 3024   0.050424    -9.417247     -8.868453       0.065549       0.000452

---------------------- Local Time Stepping Summary ----------------------
MG level: 0 -> Min. DT: 0.000497804. Max. DT: 3.62864. CFL: 10.
MG level: 1 -> Min. DT: 0.000784443. Max. DT: 5.54682. CFL: 8.11871.
MG level: 2 -> Min. DT: 0.00104893. Max. DT: 7.41451. CFL: 6.5465.
-------------------------------------------------------------------------

----------------------- Residual Evolution Summary ----------------------
log10[Maximum residual]: -8.32964.
Maximum residual point 357, located at (0.520327, 0.0602882).
-------------------------------------------------------------------------

 Iter    Time(s)     Res[Rho]     Res[RhoE]      CL(Total)      CD(Total)
 3025   0.050423    -9.434904     -8.887386       0.065549       0.000452
 3026   0.050418    -9.452676     -8.906471       0.065549       0.000452
 3027   0.050412    -9.470548     -8.925688       0.065549       0.000452
 3028   0.050434    -9.488500     -8.945010       0.065549       0.000452
 3029   0.050432    -9.506510     -8.964406       0.065549       0.000452
 3030   0.050425    -9.524552     -8.983840       0.065549       0.000452
 3031   0.050419    -9.542595     -9.003270       0.065549       0.000452
 3032   0.050415    -9.560606     -9.022653       0.065549       0.000452
 3033   0.050411    -9.578548     -9.041940       0.065549       0.000452
 3034   0.050400    -9.596381     -9.061078       0.065549       0.000452
 3035   0.050402    -9.614065     -9.080015       0.065549       0.000452
 3036   0.050427    -9.631556     -9.098694       0.065549       0.000452
 3037   0.050427    -9.648811     -9.117060       0.065549       0.000452
 3038   0.050418    -9.665786     -9.135060       0.065549       0.000452
 3039   0.050409    -9.682442     -9.152645       0.065549       0.000452
 3040   0.050402    -9.698745     -9.169774       0.065549       0.000452
 3041   0.050405    -9.714669     -9.186415       0.065549       0.000452
 3042   0.050394    -9.730195     -9.202551       0.065549       0.000452
 3043   0.050413    -9.745321     -9.218182       0.065549       0.000452
 3044   0.050414    -9.760055     -9.233324       0.065549       0.000452
 3045   0.050412    -9.774420     -9.248009       0.065549       0.000452
 3046   0.050414    -9.788451     -9.262288       0.065549       0.000452
 3047   0.050413    -9.802195     -9.276223       0.065549       0.000452
 3048   0.050418    -9.815707     -9.289885       0.065549       0.000452
 3049   0.050435    -9.829047     -9.303353       0.065549       0.000452
 3050   0.050428    -9.842277     -9.316706       0.065549       0.000452
 3051   0.050420    -9.855462     -9.330023       0.065549       0.000452
 3052   0.050416    -9.868664     -9.343380       0.065549       0.000452
 3053   0.050408    -9.881941     -9.356852       0.065549       0.000452
 3054   0.050404    -9.895352     -9.370508       0.065549       0.000452
 3055   0.050410    -9.908951     -9.384411       0.065549       0.000452
 3056   0.050413    -9.922789     -9.398626       0.065549       0.000452
 3057   0.050412    -9.936917     -9.413210       0.065549       0.000452
 3058   0.050410    -9.951381     -9.428220       0.065549       0.000452
 3059   0.050407    -9.966226     -9.443708       0.065550       0.000452
 3060   0.050400    -9.981496     -9.459724       0.065550       0.000452
 3061   0.050399    -9.997230     -9.476314       0.065550       0.000452
 3062   0.050390   -10.013468     -9.493522       0.065550       0.000452

-------------------------- File Output Summary --------------------------
Writing comma-separated values (CSV) surface files.
Merging connectivities in the Master node.
Merging coordinates in the Master node.
Merging solution in the Master node.
Writing SU2 native restart file.
Writing Paraview ASCII volume solution file.
Writing Paraview ASCII surface solution file.
Writing the forces breakdown file.
-------------------------------------------------------------------------

History file, closed.

------------------------- Solver Postprocessing -------------------------
Deleted CNumerics container.
Deleted CIntegration container.
Deleted CSolver container.
Deleted CIteration container.
Deleted CInterpolator container.
Deleted CTransfer container.
Deleted CGeometry container.
Deleted CFreeFormDefBox class.
Deleted CSurfaceMovement class.
Deleted CVolumetricMovement class.
Deleted CConfig container.
Deleted COutput class.
-------------------------------------------------------------------------

Completed in 12.081451 seconds on 1 core.

------------------------- Exit Success (SU2_CFD) ------------------------

