
-------------------------------------------------------------------------
|    ___ _   _ ___                                                      |
|   / __| | | |_  )   Release 5.0.0  "Raven"                            |
|   \__ \ |_| |/ /                                                      |
|   |___/\___//___|   Suite (Computational Fluid Dynamics Code)         |
|                                                                       |
-------------------------------------------------------------------------
| SU2 Original Developers: Dr. Francisco D. Palacios.                   |
|                          Dr. Thomas D. Economon.                      |
-------------------------------------------------------------------------
| SU2 Developers:                                                       |
| - Prof. Juan J. Alonso's group at Stanford University.                |
| - Prof. Piero Colonna's group at Delft University of Technology.      |
| - Prof. Nicolas R. Gauger's group at Kaiserslautern U. of Technology. |
| - Prof. Alberto Guardone's group at Polytechnic University of Milan.  |
| - Prof. Rafael Palacios' group at Imperial College London.            |
| - Prof. Edwin van der Weide's group at the University of Twente.      |
| - Prof. Vincent Terrapon's group at the University of Liege.          |
-------------------------------------------------------------------------
| Copyright (C) 2012-2017 SU2, the open-source CFD code.                |
|                                                                       |
| SU2 is free software; you can redistribute it and/or                  |
| modify it under the terms of the GNU Lesser General Public            |
| License as published by the Free Software Foundation; either          |
| version 2.1 of the License, or (at your option) any later version.    |
|                                                                       |
| SU2 is distributed in the hope that it will be useful,                |
| but WITHOUT ANY WARRANTY; without even the implied warranty of        |
| MERCHANTABILITY or FITNESS FOR A PARTICULAR PURPOSE. See the GNU      |
| Lesser General Public License for more details.                       |
|                                                                       |
| You should have received a copy of the GNU Lesser General Public      |
| License along with SU2. If not, see <http://www.gnu.org/licenses/>.   |
-------------------------------------------------------------------------

------------------------ Physical Case Definition -----------------------
Compressible Euler equations.
Mach number: 0.8.
Angle of attack (AoA): 1.25 deg, and angle of sideslip (AoS): 0 deg.
Read flow solution from: solution_flow.dat.
Non-Dimensional simulation (P=1.0, Rho=1.0, T=1.0 at the farfield).
The reference length/area (force coefficient) is 1.
The reference length (moment computation) is 1.
Reference origin (moment computation) is (0.25, 0, 0).
Surface(s) where the force coefficients are evaluated: airfoil.
Surface(s) plotted in the output file: airfoil.
Surface(s) affected by the design variables: airfoil.
Input mesh file name: mesh_NACA0012_inv_deform.su2

---------------------- Space Numerical Integration ----------------------
Jameson-Schmidt-Turkel scheme for the flow inviscid terms.
JST viscous coefficients (1st, 2nd & 4th): 0.15, 0.5, 0.02.
The method includes a grid stretching correction (p = 0.3).
Second order integration.
Gradient computation using Green-Gauss theorem.

---------------------- Time Numerical Integration -----------------------
Local time stepping (steady state simulation).
Euler implicit method for the flow equations.
V Multigrid Cycle, with 2 multigrid levels.
Damping factor for the residual restriction: 1.
Damping factor for the correction prolongation: 1.
No CFL adaptation.
Multigrid Level:                       0     1     2
Courant-Friedrichs-Lewy number:       10
MG PreSmooth coefficients:             1     2     3
MG PostSmooth coefficients:            0     0     0
MG CorrecSmooth coefficients:          0     0     0

------------------------- Convergence Criteria --------------------------
Maximum number of iterations: 1000.
Reduce the density residual 6 orders of magnitude.
The minimum bound for the density residual is 10^(-13).
Start convergence criteria at iteration 10.

-------------------------- Output Information ---------------------------
Writing a flow solution every 250 iterations.
Writing the convergence history every 1 iterations.
The output file format is Tecplot ASCII (.dat).
Convergence history file name: history_direct.
Forces breakdown file name: forces_breakdown.dat.
Surface flow coefficients file name: surface_flow.
Flow variables file name: flow.
Restart flow file name: restart_flow.dat.

------------------- Config File Boundary Information --------------------
Euler wall boundary marker(s): airfoil.
Far-field boundary marker(s): farfield.

---------------------- Read Grid File Information -----------------------
Two dimensional problem.
5233 points before parallel partitioning.
Performing linear partitioning of the grid nodes.
10216 interior elements before parallel partitioning.
Calling the partitioning functions.
Building the graph adjacency structure.
Distributing elements across all ranks.
2 surface markers.
200 boundary elements in index 0 (Marker = airfoil).
50 boundary elements in index 1 (Marker = farfield).
Calling ParMETIS...
Finished partitioning using ParMETIS (547 edge cuts).
Communicating partition data and creating halo layers.
10763 interior elements including halo cells. 
10763 triangles.
5796 vertices including ghost points. 
Establishing MPI communication patterns.

------------------------- Geometry Preprocessing ------------------------
Setting point connectivity.
Renumbering points (Reverse Cuthill McKee Ordering).
Recomputing point connectivity.
Setting element connectivity.
Checking the numerical grid orientation.
Identifying edges and vertices.
Computing centers of gravity.
Setting the control volume structure.
Area of the computational grid: 1.3e+03.
Searching for the closest normal neighbors to the surfaces.
Compute the surface curvature.
Max K: 7.84e+03. Mean K: 35.8. Standard deviation K: 494.
Checking for periodicity.
Setting the multigrid structure.
MG level: 0 -> CVs: 5796. Agglomeration rate 1/1.00. CFL 10.
MG level: 1 -> CVs: 1800. Agglomeration rate 1/3.22. CFL 8.36.
MG level: 2 -> CVs: 626. Agglomeration rate 1/2.88. CFL 7.39.
Computing wall distances.
Wetted area = 2.03 m.
Area projection in the x-plane = 0.105 m, y-plane = 1 m.

------------------------- Driver information --------------------------
A Fluid driver has been instantiated.

------------------------ Iteration Preprocessing ------------------------
Zone 1: Euler/Navier-Stokes/RANS flow iteration.

------------------------- Solver Preprocessing --------------------------
Inviscid flow: Computing density based on free-stream
temperature and pressure using the ideal gas law.
Force coefficients computed using free-stream values.
-- Input conditions:
Fluid Model: STANDARD_AIR 
Specific gas constant: 287.058 N.m/kg.K.
Specific gas constant (non-dim): 1
Specific Heat Ratio: 1.4
Free-stream static pressure: 101325 Pa.
Free-stream total pressure: 154454 Pa.
Free-stream temperature: 288.15 K.
Free-stream density: 1.22498 kg/m^3.
Free-stream velocity: (272.173, 5.93883) m/s. Magnitude: 272.238 m/s (529.186 KTS).
Free-stream total energy per unit mass: 243846 m^2/s^2.
-- Reference values:
Reference specific gas constant: 287.058 N.m/kg.K.
Reference pressure: 101325 Pa.
Reference temperature: 288.15 K.
Reference density: 1.22498 kg/m^3.
Reference velocity: 287.603 m/s.
Reference energy per unit mass: 82715.8 m^2/s^2.
-- Resulting non-dimensional state:
Mach number (non-dim): 0.8
Specific gas constant (non-dim): 1
Free-stream temperature (non-dim): 1
Free-stream pressure (non-dim): 1
Free-stream density (non-dim): 1
Free-stream velocity (non-dim): (0.946348, 0.0206494). Magnitude: 0.946573
Free-stream total energy per unit mass (non-dim): 2.948

Initialize Jacobian structure (Euler). MG level: 0.
Initialize Jacobian structure (Euler). MG level: 1.
Initialize Jacobian structure (Euler). MG level: 2.

----------------- Integration and Numerics Preprocessing ----------------
Integration Preprocessing.
Numerics Preprocessing.

------------------------------ Begin Solver -----------------------------

---------------------- Local Time Stepping Summary ----------------------
MG level: 0 -> Min. DT: 0.000497838. Max. DT: 3.63097. CFL: 10.
MG level: 1 -> Min. DT: 0.000799372. Max. DT: 5.71363. CFL: 8.35917.
MG level: 2 -> Min. DT: 0.0015661. Max. DT: 8.31447. CFL: 7.39444.
-------------------------------------------------------------------------

----------------------- Residual Evolution Summary ----------------------
log10[Maximum residual]: -3.7938.
Maximum residual point 146, located at (0.44878, 0.0429414).
-------------------------------------------------------------------------

 Iter    Time(s)     Res[Rho]     Res[RhoE]      CL(Total)      CD(Total)
 1237   0.016306    -4.931749     -4.335369       0.009091       0.002067
 1238   0.015564    -5.000183     -4.398859       0.011236       0.002023
 1239   0.015610    -5.041504     -4.446321       0.012484       0.002119
 1240   0.015354    -5.067152     -4.471438       0.013443       0.002057
 1241   0.015218    -5.042578     -4.448798       0.014547       0.001972
 1242   0.015253    -5.011861     -4.417957       0.015477       0.001911
 1243   0.015183    -4.984804     -4.389507       0.016359       0.001858
 1244   0.015348    -4.965105     -4.368675       0.017166       0.001804
 1245   0.015273    -4.950445     -4.353281       0.017887       0.001758
 1246   0.015214    -4.939293     -4.341728       0.018513       0.001725
 1247   0.015193    -4.930774     -4.332975       0.019038       0.001702
 1248   0.015166    -4.924018     -4.325956       0.019472       0.001687
 1249   0.015717    -4.918223     -4.319724       0.019827       0.001679
 1250   0.015766    -4.912881     -4.313696       0.020116       0.001676
 1251   0.015684    -4.907699     -4.307545       0.020351       0.001677
 1252   0.015679    -4.902480     -4.301061       0.020543       0.001681
 1253   0.015697    -4.897075     -4.294103       0.020702       0.001687
 1254   0.015656    -4.891386     -4.286604       0.020835       0.001695
 1255   0.015681    -4.885406     -4.278604       0.020949       0.001704
 1256   0.015688    -4.879218     -4.270252       0.021049       0.001714
 1257   0.015687    -4.873053     -4.261853       0.021139       0.001724
 1258   0.015706    -4.867379     -4.253962       0.021223       0.001736
 1259   0.015683    -4.863068     -4.247564       0.021303       0.001747
 1260   0.015648    -4.861812     -4.244525       0.021383       0.001760
 1261   0.015670    -4.867289     -4.248880       0.021466       0.001775
 1262   0.015628    -4.889091     -4.271244       0.021553       0.001796
 1263   0.015606    -4.963118     -4.352898       0.021557       0.001803
 1264   0.015590    -5.162443     -4.606589       0.021968       0.001811
 1265   0.015557    -5.151584     -4.592177       0.022236       0.001801
 1266   0.015548    -5.145374     -4.584030       0.022425       0.001831
 1267   0.015536    -5.191367     -4.645233       0.022723       0.001843
 1268   0.015508    -5.194399     -4.645825       0.022917       0.001838
 1269   0.015817    -5.186887     -4.632653       0.023151       0.001849
 1270   0.016221    -5.196289     -4.641563       0.023410       0.001866
 1271   0.016500    -5.201795     -4.646079       0.023635       0.001878
 1272   0.016495    -5.210257     -4.654363       0.023874       0.001894
 1273   0.016512    -5.234157     -4.683731       0.024061       0.001898
 1274   0.016503    -5.235997     -4.684804       0.024237       0.001906
 1275   0.016461    -5.255287     -4.708153       0.024415       0.001907
 1276   0.016549    -5.278266     -4.739890       0.024561       0.001909

---------------------- Local Time Stepping Summary ----------------------
MG level: 0 -> Min. DT: 0.000497937. Max. DT: 3.63096. CFL: 10.
MG level: 1 -> Min. DT: 0.000799568. Max. DT: 5.71349. CFL: 8.35917.
MG level: 2 -> Min. DT: 0.00156428. Max. DT: 8.31432. CFL: 7.39444.
-------------------------------------------------------------------------

----------------------- Residual Evolution Summary ----------------------
log10[Maximum residual]: -4.01104.
Maximum residual point 980, located at (0.12664, 0.0751967).
-------------------------------------------------------------------------

 Iter    Time(s)     Res[Rho]     Res[RhoE]      CL(Total)      CD(Total)
 1277   0.016663    -5.297757     -4.763075       0.024709       0.001906
 1278   0.016696    -5.339982     -4.818978       0.024828       0.001902
 1279   0.016665    -5.379303     -4.867367       0.024945       0.001898
 1280   0.016642    -5.427629     -4.923293       0.025042       0.001898
 1281   0.016747    -5.454563     -4.948247       0.025113       0.001897
 1282   0.016726    -5.458274     -4.940338       0.025140       0.001895
 1283   0.016682    -5.471621     -4.949561       0.025153       0.001894
 1284   0.016658    -5.495442     -4.975789       0.025145       0.001898
 1285   0.016627    -5.524637     -5.008375       0.025128       0.001905
 1286   0.016604    -5.528094     -5.003839       0.025095       0.001910
 1287   0.016567    -5.540422     -5.013868       0.025059       0.001912
 1288   0.016576    -5.574309     -5.055772       0.025025       0.001913
 1289   0.016570    -5.611277     -5.099787       0.024989       0.001914
 1290   0.016543    -5.642952     -5.132684       0.024951       0.001914
 1291   0.016516    -5.675418     -5.166058       0.024916       0.001912
 1292   0.016494    -5.710643     -5.203147       0.024888       0.001911
 1293   0.016479    -5.744898     -5.238095       0.024870       0.001910
 1294   0.016458    -5.774265     -5.265822       0.024862       0.001909
 1295   0.016431    -5.798744     -5.287371       0.024863       0.001910
 1296   0.016405    -5.821116     -5.307071       0.024873       0.001910
 1297   0.016379    -5.841406     -5.324822       0.024890       0.001911
 1298   0.016377    -5.860498     -5.341621       0.024913       0.001912
 1299   0.016354    -5.879448     -5.358724       0.024941       0.001912
 1300   0.016327    -5.900219     -5.378573       0.024973       0.001912
 1301   0.016302    -5.924240     -5.402804       0.025008       0.001911
 1302   0.016277    -5.952515     -5.432462       0.025045       0.001910
 1303   0.016253    -5.985080     -5.467371       0.025084       0.001908
 1304   0.016229    -6.020690     -5.505761       0.025126       0.001905
 1305   0.016217    -6.056446     -5.543762       0.025169       0.001903
 1306   0.016201    -6.089832     -5.578233       0.025214       0.001900
 1307   0.016184    -6.120014     -5.608558       0.025259       0.001898
 1308   0.016180    -6.146978     -5.635260       0.025305       0.001896
 1309   0.016287    -6.169686     -5.657316       0.025350       0.001895
 1310   0.016357    -6.189522     -5.676651       0.025395       0.001894
 1311   0.016339    -6.203725     -5.688582       0.025437       0.001894
 1312   0.016319    -6.204071     -5.682578       0.025475       0.001895
 1313   0.016302    -6.206393     -5.681381       0.025508       0.001894
 1314   0.016301    -6.202873     -5.673702       0.025542       0.001895
 1315   0.016284    -6.197089     -5.663725       0.025572       0.001896
 1316   0.016274    -6.205870     -5.673470       0.025602       0.001897

---------------------- Local Time Stepping Summary ----------------------
MG level: 0 -> Min. DT: 0.000497991. Max. DT: 3.63095. CFL: 10.
MG level: 1 -> Min. DT: 0.000799604. Max. DT: 5.71349. CFL: 8.35917.
MG level: 2 -> Min. DT: 0.00156402. Max. DT: 8.3143. CFL: 7.39444.
-------------------------------------------------------------------------

----------------------- Residual Evolution Summary ----------------------
log10[Maximum residual]: -5.06677.
Maximum residual point 1139, located at (0.581975, -0.142663).
-------------------------------------------------------------------------

 Iter    Time(s)     Res[Rho]     Res[RhoE]      CL(Total)      CD(Total)
 1317   0.016257    -6.210304     -5.677485       0.025629       0.001897
 1318   0.016246    -6.222628     -5.691211       0.025658       0.001899
 1319   0.016230    -6.229796     -5.698007       0.025681       0.001899
 1320   0.016212    -6.254349     -5.727229       0.025709       0.001901
 1321   0.016194    -6.264465     -5.737704       0.025732       0.001902
 1322   0.016181    -6.294892     -5.774049       0.025757       0.001903
 1323   0.016163    -6.304021     -5.782286       0.025778       0.001903
 1324   0.016154    -6.333091     -5.815573       0.025801       0.001904
 1325   0.016140    -6.346984     -5.829249       0.025821       0.001905
 1326   0.016147    -6.378911     -5.865785       0.025842       0.001905
 1327   0.016149    -6.386219     -5.869551       0.025861       0.001905
 1328   0.016134    -6.410090     -5.894674       0.025881       0.001906
 1329   0.016124    -6.425490     -5.909312       0.025899       0.001905
 1330   0.016192    -6.445746     -5.929469       0.025917       0.001905
 1331   0.016281    -6.459207     -5.941192       0.025936       0.001905
 1332   0.016366    -6.477933     -5.960253       0.025952       0.001905
 1333   0.016367    -6.485070     -5.963697       0.025971       0.001905
 1334   0.016364    -6.520316     -6.006391       0.025986       0.001904
 1335   0.016352    -6.515696     -5.993052       0.026001       0.001904
 1336   0.016345    -6.532207     -6.008512       0.026020       0.001903
 1337   0.016361    -6.550354     -6.030459       0.026035       0.001903
 1338   0.016384    -6.556882     -6.032524       0.026052       0.001902
 1339   0.016417    -6.598003     -6.080982       0.026069       0.001902
 1340   0.016407    -6.615892     -6.097477       0.026084       0.001902
 1341   0.016400    -6.613800     -6.085566       0.026101       0.001902
 1342   0.016386    -6.648338     -6.124866       0.026116       0.001901
 1343   0.016378    -6.651917     -6.124932       0.026131       0.001901
 1344   0.016367    -6.652014     -6.119516       0.026147       0.001900
 1345   0.016349    -6.675518     -6.147135       0.026160       0.001900
 1346   0.016334    -6.679703     -6.147960       0.026174       0.001900
 1347   0.016321    -6.687547     -6.153262       0.026186       0.001900
 1348   0.016328    -6.724415     -6.198882       0.026200       0.001900
 1349   0.016323    -6.723317     -6.193563       0.026212       0.001900
 1350   0.016309    -6.765076     -6.243809       0.026224       0.001900
 1351   0.016294    -6.771914     -6.247775       0.026235       0.001900
 1352   0.016283    -6.813727     -6.296951       0.026245       0.001901
 1353   0.016267    -6.846327     -6.332934       0.026255       0.001901
 1354   0.016252    -6.884199     -6.375079       0.026264       0.001901
 1355   0.016241    -6.895484     -6.379349       0.026271       0.001902
 1356   0.016242    -6.922226     -6.408417       0.026277       0.001902

---------------------- Local Time Stepping Summary ----------------------
MG level: 0 -> Min. DT: 0.000498043. Max. DT: 3.63095. CFL: 10.
MG level: 1 -> Min. DT: 0.000799652. Max. DT: 5.71348. CFL: 8.35917.
MG level: 2 -> Min. DT: 0.00156364. Max. DT: 8.3143. CFL: 7.39444.
-------------------------------------------------------------------------

----------------------- Residual Evolution Summary ----------------------
log10[Maximum residual]: -5.79794.
Maximum residual point 294, located at (0.599087, -0.0653516).
-------------------------------------------------------------------------

 Iter    Time(s)     Res[Rho]     Res[RhoE]      CL(Total)      CD(Total)
 1357   0.016230    -6.938793     -6.424390       0.026283       0.001902
 1358   0.016221    -6.937987     -6.415812       0.026288       0.001903
 1359   0.016210    -6.948804     -6.425559       0.026292       0.001903
 1360   0.016199    -6.953286     -6.427498       0.026296       0.001903
 1361   0.016192    -6.966733     -6.442155       0.026300       0.001903
 1362   0.016198    -6.982774     -6.460396       0.026303       0.001904
 1363   0.016188    -6.999657     -6.479282       0.026306       0.001904
 1364   0.016185    -7.019708     -6.502396       0.026309       0.001904
 1365   0.016178    -7.041894     -6.528029       0.026311       0.001904
 1366   0.016168    -7.068186     -6.558842       0.026314       0.001904
 1367   0.016159    -7.097877     -6.593414       0.026316       0.001905
 1368   0.016149    -7.129831     -6.629849       0.026319       0.001905
 1369   0.016138    -7.161927     -6.664913       0.026321       0.001905
 1370   0.016125    -7.191588     -6.694977       0.026324       0.001905
 1371   0.016114    -7.217042     -6.718184       0.026327       0.001905
 1372   0.016107    -7.236743     -6.733409       0.026330       0.001905
 1373   0.016097    -7.249657     -6.740180       0.026333       0.001905
 1374   0.016097    -7.254349     -6.737231       0.026337       0.001905
 1375   0.016091    -7.255488     -6.731471       0.026340       0.001905
 1376   0.016077    -7.262180     -6.734876       0.026344       0.001905
 1377   0.016071    -7.279035     -6.752580       0.026348       0.001905
 1378   0.016061    -7.305530     -6.782571       0.026351       0.001905
 1379   0.016054    -7.305999     -6.776465       0.026354       0.001905
 1380   0.016044    -7.295885     -6.756686       0.026357       0.001905
 1381   0.016037    -7.317405     -6.779998       0.026360       0.001904
 1382   0.016026    -7.340132     -6.806267       0.026363       0.001904
 1383   0.016017    -7.344323     -6.806696       0.026366       0.001904
 1384   0.016008    -7.372586     -6.837485       0.026369       0.001904
 1385   0.016000    -7.382447     -6.844146       0.026371       0.001904
 1386   0.015994    -7.371248     -6.824541       0.026374       0.001904
 1387   0.015987    -7.387589     -6.840272       0.026376       0.001904
 1388   0.015980    -7.402191     -6.855321       0.026378       0.001904
 1389   0.015973    -7.405836     -6.856467       0.026379       0.001904
 1390   0.015968    -7.422969     -6.874329       0.026381       0.001904
 1391   0.015963    -7.432429     -6.883070       0.026383       0.001904
 1392   0.015959    -7.436990     -6.885843       0.026384       0.001903
 1393   0.015954    -7.448454     -6.897454       0.026385       0.001903
 1394   0.016010    -7.456458     -6.906054       0.026387       0.001903
 1395   0.016072    -7.469066     -6.919620       0.026388       0.001903
 1396   0.016103    -7.482757     -6.936521       0.026389       0.001904

---------------------- Local Time Stepping Summary ----------------------
MG level: 0 -> Min. DT: 0.000498028. Max. DT: 3.63095. CFL: 10.
MG level: 1 -> Min. DT: 0.000799619. Max. DT: 5.71348. CFL: 8.35917.
MG level: 2 -> Min. DT: 0.00156353. Max. DT: 8.3143. CFL: 7.39444.
-------------------------------------------------------------------------

----------------------- Residual Evolution Summary ----------------------
log10[Maximum residual]: -6.31564.
Maximum residual point 565, located at (0.592562, -0.0817751).
-------------------------------------------------------------------------

 Iter    Time(s)     Res[Rho]     Res[RhoE]      CL(Total)      CD(Total)
 1397   0.016106    -7.508165     -6.965509       0.026389       0.001904
 1398   0.016110    -7.577529     -7.058446       0.026390       0.001904
 1399   0.016103    -7.573608     -7.048436       0.026391       0.001904
 1400   0.016107    -7.632002     -7.120833       0.026392       0.001904
 1401   0.016123    -7.652514     -7.140273       0.026392       0.001904
 1402   0.016142    -7.701491     -7.196724       0.026393       0.001904
 1403   0.016169    -7.730557     -7.226299       0.026393       0.001904
 1404   0.016159    -7.729693     -7.212447       0.026393       0.001904
 1405   0.016155    -7.743513     -7.223530       0.026394       0.001904
 1406   0.016147    -7.751067     -7.228673       0.026394       0.001904
 1407   0.016139    -7.755591     -7.229598       0.026394       0.001904
 1408   0.016130    -7.765816     -7.238892       0.026394       0.001904
 1409   0.016129    -7.780720     -7.254948       0.026394       0.001904
 1410   0.016122    -7.798239     -7.274228       0.026395       0.001904
 1411   0.016114    -7.814328     -7.290717       0.026395       0.001904
 1412   0.016111    -7.830992     -7.307779       0.026395       0.001904
 1413   0.016104    -7.851933     -7.331079       0.026395       0.001904
 1414   0.016096    -7.878592     -7.362414       0.026396       0.001904
 1415   0.016089    -7.910223     -7.399753       0.026396       0.001904
 1416   0.016080    -7.945073     -7.439722       0.026396       0.001904
 1417   0.016072    -7.981714     -7.480256       0.026397       0.001904
 1418   0.016067    -8.018649     -7.519605       0.026397       0.001904
 1419   0.016065    -8.054895     -7.556748       0.026398       0.001904
 1420   0.016058    -8.090585     -7.592373       0.026398       0.001904
 1421   0.016053    -8.121158     -7.620400       0.026399       0.001904
 1422   0.016046    -8.136533     -7.627766       0.026399       0.001904
 1423   0.016042    -8.135317     -7.615204       0.026399       0.001904
 1424   0.016037    -8.128687     -7.599017       0.026400       0.001904
 1425   0.016030    -8.124640     -7.589133       0.026400       0.001904
 1426   0.016026    -8.125309     -7.587170       0.026401       0.001904
 1427   0.016017    -8.129808     -7.590734       0.026401       0.001904
 1428   0.016014    -8.134805     -7.594720       0.026401       0.001904
 1429   0.016008    -8.142262     -7.601584       0.026402       0.001904
 1430   0.016001    -8.153907     -7.613712       0.026402       0.001904
 1431   0.015997    -8.165792     -7.625981       0.026402       0.001904
 1432   0.015994    -8.175771     -7.635481       0.026402       0.001904
 1433   0.015989    -8.184356     -7.643178       0.026402       0.001904
 1434   0.015980    -8.194110     -7.652282       0.026403       0.001904
 1435   0.015976    -8.204242     -7.662285       0.026403       0.001904
 1436   0.015970    -8.220908     -7.680139       0.026403       0.001904

---------------------- Local Time Stepping Summary ----------------------
MG level: 0 -> Min. DT: 0.000498026. Max. DT: 3.63095. CFL: 10.
MG level: 1 -> Min. DT: 0.000799615. Max. DT: 5.71348. CFL: 8.35917.
MG level: 2 -> Min. DT: 0.00156352. Max. DT: 8.3143. CFL: 7.39444.
-------------------------------------------------------------------------

----------------------- Residual Evolution Summary ----------------------
log10[Maximum residual]: -7.12942.
Maximum residual point 441, located at (0.629907, -0.0628401).
-------------------------------------------------------------------------

 Iter    Time(s)     Res[Rho]     Res[RhoE]      CL(Total)      CD(Total)
 1437   0.015966    -8.235764     -7.696676       0.026403       0.001904
 1438   0.015962    -8.270075     -7.737270       0.026403       0.001904
 1439   0.015966    -8.292425     -7.762825       0.026403       0.001904
 1440   0.015963    -8.329533     -7.805915       0.026403       0.001904
 1441   0.015966    -8.350291     -7.827527       0.026403       0.001904
 1442   0.015965    -8.405396     -7.895164       0.026403       0.001904
 1443   0.015958    -8.434137     -7.924522       0.026403       0.001904
 1444   0.015955    -8.479108     -7.975205       0.026403       0.001904
 1445   0.015951    -8.520146     -8.018881       0.026403       0.001904
 1446   0.015946    -8.551501     -8.048528       0.026403       0.001904
 1447   0.015938    -8.593186     -8.094663       0.026403       0.001904
 1448   0.015934    -8.612180     -8.107440       0.026403       0.001904
 1449   0.015932    -8.617644     -8.102739       0.026403       0.001904
 1450   0.015929    -8.625027     -8.104656       0.026403       0.001904
 1451   0.015923    -8.627440     -8.101892       0.026403       0.001904
 1452   0.015918    -8.629617     -8.099883       0.026403       0.001904
 1453   0.015916    -8.638605     -8.108353       0.026403       0.001904
 1454   0.015913    -8.649916     -8.119647       0.026403       0.001904
 1455   0.015907    -8.670148     -8.143748       0.026403       0.001904
 1456   0.015909    -8.690183     -8.165827       0.026403       0.001904
 1457   0.015952    -8.724759     -8.208878       0.026403       0.001904
 1458   0.015990    -8.743752     -8.228129       0.026403       0.001904
 1459   0.016017    -8.782599     -8.273535       0.026403       0.001904
 1460   0.016018    -8.816502     -8.310939       0.026403       0.001904
 1461   0.016013    -8.876240     -8.382571       0.026403       0.001904
 1462   0.016007    -8.903530     -8.404064       0.026403       0.001904
 1463   0.016006    -8.901858     -8.388186       0.026403       0.001904
 1464   0.016008    -8.930361     -8.417495       0.026403       0.001904
 1465   0.016023    -8.958171     -8.448278       0.026404       0.001904
 1466   0.016027    -8.948218     -8.427514       0.026404       0.001904
 1467   0.016033    -8.953088     -8.427560       0.026404       0.001904
 1468   0.016036    -8.967240     -8.443094       0.026404       0.001904
 1469   0.016029    -9.008079     -8.495091       0.026404       0.001904
 1470   0.016024    -9.028346     -8.516707       0.026404       0.001904
 1471   0.016021    -9.048227     -8.536890       0.026404       0.001904
 1472   0.016015    -9.074142     -8.564706       0.026404       0.001904
 1473   0.016009    -9.066508     -8.548828       0.026404       0.001904
 1474   0.016007    -9.109453     -8.600149       0.026404       0.001904
 1475   0.016000    -9.098445     -8.578317       0.026404       0.001904
 1476   0.016003    -9.115731     -8.593205       0.026404       0.001904

---------------------- Local Time Stepping Summary ----------------------
MG level: 0 -> Min. DT: 0.000498026. Max. DT: 3.63095. CFL: 10.
MG level: 1 -> Min. DT: 0.000799614. Max. DT: 5.71348. CFL: 8.35917.
MG level: 2 -> Min. DT: 0.00156352. Max. DT: 8.3143. CFL: 7.39444.
-------------------------------------------------------------------------

----------------------- Residual Evolution Summary ----------------------
log10[Maximum residual]: -8.02036.
Maximum residual point 556, located at (0.561122, -0.0841201).
-------------------------------------------------------------------------

 Iter    Time(s)     Res[Rho]     Res[RhoE]      CL(Total)      CD(Total)
 1477   0.016006    -9.119226     -8.590886       0.026404       0.001904
 1478   0.016002    -9.124774     -8.592180       0.026404       0.001904
 1479   0.015997    -9.130409     -8.594275       0.026404       0.001904
 1480   0.015993    -9.134709     -8.595221       0.026404       0.001904
 1481   0.015988    -9.136406     -8.593289       0.026404       0.001904
 1482   0.015984    -9.137998     -8.591656       0.026404       0.001904
 1483   0.015986    -9.139924     -8.590785       0.026404       0.001904
 1484   0.015981    -9.141791     -8.590110       0.026403       0.001904
 1485   0.015976    -9.143604     -8.589569       0.026403       0.001904
 1486   0.015973    -9.145585     -8.589399       0.026403       0.001904
 1487   0.015973    -9.147821     -8.589683       0.026403       0.001904

-------------------------- File Output Summary --------------------------
Writing comma-separated values (CSV) surface files.
Merging coordinates in the Master node.
Merging solution in the Master node.
Writing SU2 native restart file.
Writing the forces breakdown file.
-------------------------------------------------------------------------

 1488   0.016162    -9.150344     -8.590432       0.026403       0.001904
 1489   0.016158    -9.153181     -8.591657       0.026403       0.001904
 1490   0.016151    -9.156314     -8.593319       0.026403       0.001904
 1491   0.016145    -9.159728     -8.595385       0.026403       0.001904
 1492   0.016139    -9.163422     -8.597845       0.026403       0.001904
 1493   0.016135    -9.167411     -8.600710       0.026403       0.001904
 1494   0.016129    -9.171730     -8.604013       0.026403       0.001904
 1495   0.016124    -9.176424     -8.607798       0.026403       0.001904
 1496   0.016120    -9.181557     -8.612130       0.026403       0.001904
 1497   0.016117    -9.187202     -8.617081       0.026403       0.001904
 1498   0.016112    -9.193427     -8.622722       0.026403       0.001904
 1499   0.016108    -9.200304     -8.629122       0.026403       0.001904
 1500   0.016104    -9.207902     -8.636353       0.026403       0.001904
 1501   0.016100    -9.216280     -8.644476       0.026403       0.001904
 1502   0.016095    -9.225494     -8.653551       0.026403       0.001904
 1503   0.016091    -9.235596     -8.663637       0.026403       0.001904
 1504   0.016086    -9.246612     -8.674768       0.026403       0.001904
 1505   0.016084    -9.258553     -8.686959       0.026403       0.001904
 1506   0.016079    -9.271404     -8.700201       0.026403       0.001904
 1507   0.016074    -9.285116     -8.714445       0.026403       0.001904
 1508   0.016069    -9.299622     -8.729620       0.026403       0.001904
 1509   0.016065    -9.314823     -8.745622       0.026403       0.001904
 1510   0.016060    -9.330609     -8.762331       0.026403       0.001904
 1511   0.016054    -9.346844     -8.779601       0.026403       0.001904
 1512   0.016056    -9.363380     -8.797270       0.026403       0.001904
 1513   0.016053    -9.380041     -8.815140       0.026403       0.001904
 1514   0.016053    -9.396636     -8.832997       0.026403       0.001904
 1515   0.016052    -9.412985     -8.850634       0.026403       0.001904
 1516   0.016047    -9.428918     -8.867849       0.026403       0.001904

---------------------- Local Time Stepping Summary ----------------------
MG level: 0 -> Min. DT: 0.000498026. Max. DT: 3.63095. CFL: 10.
MG level: 1 -> Min. DT: 0.000799614. Max. DT: 5.71348. CFL: 8.35917.
MG level: 2 -> Min. DT: 0.00156352. Max. DT: 8.3143. CFL: 7.39444.
-------------------------------------------------------------------------

----------------------- Residual Evolution Summary ----------------------
log10[Maximum residual]: -8.36164.
Maximum residual point 254, located at (0.379135, -0.0748836).
-------------------------------------------------------------------------

 Iter    Time(s)     Res[Rho]     Res[RhoE]      CL(Total)      CD(Total)
 1517   0.016062    -9.444291     -8.884463       0.026403       0.001904
 1518   0.016095    -9.459000     -8.900341       0.026403       0.001904
 1519   0.016124    -9.472980     -8.915390       0.026403       0.001904
 1520   0.016129    -9.486208     -8.929572       0.026403       0.001904
 1521   0.016129    -9.498709     -8.942910       0.026403       0.001904
 1522   0.016128    -9.510539     -8.955471       0.026403       0.001904
 1523   0.016125    -9.521780     -8.967353       0.026403       0.001904
 1524   0.016125    -9.532565     -8.978722       0.026403       0.001904
 1525   0.016134    -9.543016     -8.989730       0.026403       0.001904
 1526   0.016142    -9.553278     -9.000555       0.026403       0.001904
 1527   0.016140    -9.563481     -9.011356       0.026403       0.001904
 1528   0.016154    -9.573731     -9.022256       0.026403       0.001904
 1529   0.016148    -9.584133     -9.033375       0.026403       0.001904
 1530   0.016144    -9.594767     -9.044803       0.026403       0.001904
 1531   0.016140    -9.605706     -9.056619       0.026403       0.001904
 1532   0.016135    -9.617012     -9.068887       0.026403       0.001904
 1533   0.016130    -9.628732     -9.081652       0.026403       0.001904
 1534   0.016127    -9.640896     -9.094941       0.026403       0.001904
 1535   0.016122    -9.653520     -9.108763       0.026403       0.001904
 1536   0.016118    -9.666595     -9.123095       0.026403       0.001904
 1537   0.016115    -9.680094     -9.137892       0.026403       0.001904
 1538   0.016110    -9.693955     -9.153067       0.026403       0.001904
 1539   0.016106    -9.708114     -9.168529       0.026403       0.001904
 1540   0.016101    -9.722485     -9.184164       0.026403       0.001904
 1541   0.016096    -9.736939     -9.199802       0.026403       0.001904
 1542   0.016092    -9.751340     -9.215267       0.026403       0.001904
 1543   0.016092    -9.765577     -9.230425       0.026403       0.001904
 1544   0.016089    -9.779513     -9.245111       0.026403       0.001904
 1545   0.016086    -9.793016     -9.259170       0.026403       0.001904
 1546   0.016094    -9.806013     -9.272534       0.026403       0.001904
 1547   0.016090    -9.818507     -9.285235       0.026403       0.001904
 1548   0.016094    -9.830533     -9.297341       0.026403       0.001904
 1549   0.016092    -9.842128     -9.308919       0.026403       0.001904
 1550   0.016093    -9.853403     -9.320129       0.026403       0.001904
 1551   0.016092    -9.864486     -9.331143       0.026403       0.001904
 1552   0.016089    -9.875533     -9.342163       0.026403       0.001904
 1553   0.016084    -9.886720     -9.353409       0.026403       0.001904
 1554   0.016080    -9.898187     -9.365045       0.026403       0.001904
 1555   0.016076    -9.910104     -9.377276       0.026403       0.001904
 1556   0.016072    -9.922650     -9.390312       0.026403       0.001904

---------------------- Local Time Stepping Summary ----------------------
MG level: 0 -> Min. DT: 0.000498025. Max. DT: 3.63095. CFL: 10.
MG level: 1 -> Min. DT: 0.000799614. Max. DT: 5.71348. CFL: 8.35917.
MG level: 2 -> Min. DT: 0.00156352. Max. DT: 8.3143. CFL: 7.39444.
-------------------------------------------------------------------------

----------------------- Residual Evolution Summary ----------------------
log10[Maximum residual]: -8.68747.
Maximum residual point 304, located at (0.41013, -0.0744859).
-------------------------------------------------------------------------

 Iter    Time(s)     Res[Rho]     Res[RhoE]      CL(Total)      CD(Total)
 1557   0.016068    -9.936021     -9.404386       0.026403       0.001904
 1558   0.016064    -9.950391     -9.419696       0.026403       0.001904
 1559   0.016060    -9.965918     -9.436417       0.026403       0.001904
 1560   0.016058    -9.982701     -9.454643       0.026403       0.001904
 1561   0.016055   -10.000821     -9.474449       0.026403       0.001904
 1562   0.016052   -10.020326     -9.495861       0.026403       0.001904
 1563   0.016051   -10.041158     -9.518768       0.026403       0.001904
 1564   0.016049   -10.063004     -9.542705       0.026403       0.001904
 1565   0.016045   -10.085414     -9.567056       0.026403       0.001904
 1566   0.016040   -10.107986     -9.591323       0.026403       0.001904
 1567   0.016036   -10.130264     -9.614972       0.026403       0.001904
 1568   0.016033   -10.151796     -9.637490       0.026403       0.001904
 1569   0.016029   -10.172204     -9.658485       0.026403       0.001904
 1570   0.016025   -10.191441     -9.678045       0.026403       0.001904
 1571   0.016021   -10.209710     -9.696542       0.026403       0.001904
 1572   0.016017   -10.227727     -9.715012       0.026403       0.001904
 1573   0.016014   -10.246265     -9.734472       0.026403       0.001904
 1574   0.016009   -10.264372     -9.753363       0.026403       0.001904
 1575   0.016004   -10.276602     -9.763613       0.026403       0.001904
 1576   0.016001   -10.279213     -9.760965       0.026403       0.001904
 1577   0.015997   -10.292264     -9.775871       0.026403       0.001904
 1578   0.015995   -10.285809     -9.762705       0.026403       0.001904
 1579   0.015992   -10.299170     -9.779099       0.026403       0.001904
 1580   0.015995   -10.300646     -9.777751       0.026403       0.001904
 1581   0.016020   -10.318397     -9.799276       0.026403       0.001904
 1582   0.016047   -10.313228     -9.788384       0.026403       0.001904
 1583   0.016062   -10.330817     -9.809451       0.026403       0.001904
 1584   0.016062   -10.324251     -9.797534       0.026403       0.001904
 1585   0.016060   -10.341995     -9.818840       0.026403       0.001904
 1586   0.016061   -10.335952     -9.808026       0.026403       0.001904
 1587   0.016059   -10.350083     -9.823910       0.026403       0.001904
 1588   0.016063   -10.345734     -9.815563       0.026403       0.001904
 1589   0.016070   -10.356097     -9.826379       0.026403       0.001904
 1590   0.016070   -10.355420     -9.823023       0.026403       0.001904
 1591   0.016072   -10.363976     -9.831521       0.026403       0.001904
 1592   0.016079   -10.366338     -9.832096       0.026403       0.001904
 1593   0.016076   -10.373804     -9.839123       0.026403       0.001904
 1594   0.016072   -10.378032     -9.842026       0.026403       0.001904
 1595   0.016069   -10.384862     -9.848189       0.026403       0.001904
 1596   0.016065   -10.390136     -9.852380       0.026403       0.001904

---------------------- Local Time Stepping Summary ----------------------
MG level: 0 -> Min. DT: 0.000498025. Max. DT: 3.63095. CFL: 10.
MG level: 1 -> Min. DT: 0.000799614. Max. DT: 5.71348. CFL: 8.35917.
MG level: 2 -> Min. DT: 0.00156352. Max. DT: 8.3143. CFL: 7.39444.
-------------------------------------------------------------------------

----------------------- Residual Evolution Summary ----------------------
log10[Maximum residual]: -9.21714.
Maximum residual point 526, located at (0.434112, -0.0899155).
-------------------------------------------------------------------------

 Iter    Time(s)     Res[Rho]     Res[RhoE]      CL(Total)      CD(Total)
 1597   0.016062   -10.396625     -9.858079       0.026403       0.001904
 1598   0.016059   -10.402344     -9.862803       0.026403       0.001904
 1599   0.016056   -10.408578     -9.868161       0.026403       0.001904
 1600   0.016054   -10.414422     -9.873033       0.026403       0.001904
 1601   0.016052   -10.420457     -9.878144       0.026403       0.001904
 1602   0.016048   -10.426291     -9.883011       0.026403       0.001904
 1603   0.016045   -10.432154     -9.887924       0.026403       0.001904
 1604   0.016041   -10.437883     -9.892682       0.026403       0.001904
 1605   0.016038   -10.443623     -9.897470       0.026403       0.001904
 1606   0.016035   -10.449282     -9.902170       0.026403       0.001904
 1607   0.016035   -10.454932     -9.906878       0.026403       0.001904
 1608   0.016034   -10.460544     -9.911554       0.026403       0.001904
 1609   0.016031   -10.466136     -9.916223       0.026403       0.001904
 1610   0.016029   -10.471708     -9.920885       0.026403       0.001904
 1611   0.016026   -10.477275     -9.925558       0.026403       0.001904
 1612   0.016022   -10.482833     -9.930238       0.026403       0.001904
 1613   0.016019   -10.488409     -9.934957       0.026403       0.001904
 1614   0.016017   -10.494010     -9.939723       0.026403       0.001904
 1615   0.016013   -10.499618     -9.944516       0.026403       0.001904
 1616   0.016012   -10.505273     -9.949384       0.026403       0.001904
 1617   0.016010   -10.510988     -9.954342       0.026403       0.001904
 1618   0.016007   -10.516768     -9.959395       0.026403       0.001904
 1619   0.016004   -10.522589     -9.964516       0.026403       0.001904
 1620   0.016001   -10.528481     -9.969741       0.026403       0.001904
 1621   0.015996   -10.534454     -9.975083       0.026403       0.001904
 1622   0.015993   -10.540520     -9.980557       0.026403       0.001904
 1623   0.015991   -10.546651     -9.986127       0.026403       0.001904
 1624   0.015987   -10.552886     -9.991843       0.026403       0.001904
 1625   0.015985   -10.559208     -9.997685       0.026403       0.001904
 1626   0.015988   -10.565626    -10.003662       0.026403       0.001904
 1627   0.015985   -10.572130    -10.009765       0.026403       0.001904
 1628   0.015985   -10.578733    -10.016009       0.026403       0.001904
 1629   0.015983   -10.585466    -10.022431       0.026403       0.001904
 1630   0.015985   -10.592306    -10.029005       0.026403       0.001904
 1631   0.015981   -10.599260    -10.035738       0.026403       0.001904
 1632   0.015978   -10.606295    -10.042591       0.026403       0.001904
 1633   0.015974   -10.613448    -10.049611       0.026403       0.001904
 1634   0.015971   -10.620700    -10.056773       0.026403       0.001904
 1635   0.015969   -10.628094    -10.064131       0.026403       0.001904
 1636   0.015966   -10.635583    -10.071627       0.026403       0.001904

---------------------- Local Time Stepping Summary ----------------------
MG level: 0 -> Min. DT: 0.000498025. Max. DT: 3.63095. CFL: 10.
MG level: 1 -> Min. DT: 0.000799614. Max. DT: 5.71348. CFL: 8.35917.
MG level: 2 -> Min. DT: 0.00156352. Max. DT: 8.3143. CFL: 7.39444.
-------------------------------------------------------------------------

----------------------- Residual Evolution Summary ----------------------
log10[Maximum residual]: -9.45997.
Maximum residual point 254, located at (0.379135, -0.0748836).
-------------------------------------------------------------------------

 Iter    Time(s)     Res[Rho]     Res[RhoE]      CL(Total)      CD(Total)
 1637   0.015964   -10.643188    -10.079285       0.026403       0.001904
 1638   0.015962   -10.650924    -10.087126       0.026403       0.001904
 1639   0.015958   -10.658761    -10.095112       0.026403       0.001904
 1640   0.015955   -10.666767    -10.103326       0.026403       0.001904
 1641   0.015954   -10.674861    -10.111670       0.026403       0.001904
 1642   0.015952   -10.683057    -10.120159       0.026403       0.001904
 1643   0.015950   -10.691421    -10.128875       0.026403       0.001904
 1644   0.015968   -10.699945    -10.137808       0.026403       0.001904
 1645   0.015990   -10.708643    -10.146972       0.026403       0.001904
 1646   0.016009   -10.717545    -10.156404       0.026403       0.001904
 1647   0.016011   -10.726614    -10.166058       0.026403       0.001904
 1648   0.016011   -10.735812    -10.175888       0.026403       0.001904
 1649   0.016010   -10.745230    -10.186005       0.026403       0.001904
 1650   0.016006   -10.754862    -10.196400       0.026403       0.001904
 1651   0.016005   -10.764637    -10.206984       0.026403       0.001904
 1652   0.016010   -10.774684    -10.217915       0.026403       0.001904
 1653   0.016015   -10.785039    -10.229237       0.026403       0.001904
 1654   0.016017   -10.795663    -10.240897       0.026403       0.001904
 1655   0.016018   -10.806625    -10.252980       0.026403       0.001904
 1656   0.016022   -10.817847    -10.265384       0.026403       0.001904
 1657   0.016023   -10.829409    -10.278208       0.026403       0.001904
 1658   0.016020   -10.841237    -10.291356       0.026403       0.001904
 1659   0.016017   -10.853588    -10.305151       0.026403       0.001904
 1660   0.016014   -10.866272    -10.319341       0.026403       0.001904

-------------------------- File Output Summary --------------------------
Writing comma-separated values (CSV) surface files.
Merging coordinates in the Master node.
Merging solution in the Master node.
Writing SU2 native restart file.
Writing the forces breakdown file.
-------------------------------------------------------------------------

History file, closed.

------------------------- Solver Postprocessing -------------------------
Deleted CNumerics container.
Deleted CIntegration container.
Deleted CSolver container.
Deleted CIteration container.
Deleted CInterpolator container.
Deleted CTransfer container.
Deleted CGeometry container.
Deleted CFreeFormDefBox class.
Deleted CSurfaceMovement class.
Deleted CVolumetricMovement class.
Deleted CConfig container.
Deleted COutput class.
-------------------------------------------------------------------------

Completed in 6.845064 seconds on 8 cores.

------------------------- Exit Success (SU2_CFD) ------------------------


-------------------------------------------------------------------------
|    ___ _   _ ___                                                      |
|   / __| | | |_  )   Release 5.0.0  "Raven"                            |
|   \__ \ |_| |/ /                                                      |
|   |___/\___//___|   Suite (Solution Exporting Code)                   |
|                                                                       |
-------------------------------------------------------------------------
| SU2 Original Developers: Dr. Francisco D. Palacios.                   |
|                          Dr. Thomas D. Economon.                      |
-------------------------------------------------------------------------
| SU2 Developers:                                                       |
| - Prof. Juan J. Alonso's group at Stanford University.                |
| - Prof. Piero Colonna's group at Delft University of Technology.      |
| - Prof. Nicolas R. Gauger's group at Kaiserslautern U. of Technology. |
| - Prof. Alberto Guardone's group at Polytechnic University of Milan.  |
| - Prof. Rafael Palacios' group at Imperial College London.            |
| - Prof. Edwin van der Weide's group at the University of Twente.      |
| - Prof. Vincent Terrapon's group at the University of Liege.          |
-------------------------------------------------------------------------
| Copyright (C) 2012-2017 SU2, the open-source CFD code.                |
|                                                                       |
| SU2 is free software; you can redistribute it and/or                  |
| modify it under the terms of the GNU Lesser General Public            |
| License as published by the Free Software Foundation; either          |
| version 2.1 of the License, or (at your option) any later version.    |
|                                                                       |
| SU2 is distributed in the hope that it will be useful,                |
| but WITHOUT ANY WARRANTY; without even the implied warranty of        |
| MERCHANTABILITY or FITNESS FOR A PARTICULAR PURPOSE. See the GNU      |
| Lesser General Public License for more details.                       |
|                                                                       |
| You should have received a copy of the GNU Lesser General Public      |
| License along with SU2. If not, see <http://www.gnu.org/licenses/>.   |
-------------------------------------------------------------------------

------------------------ Physical Case Definition -----------------------
Input mesh file name: mesh_NACA0012_inv_deform.su2

-------------------------- Output Information ---------------------------
The output file format is Tecplot ASCII (.dat).
Flow variables file name: flow.

------------------- Config File Boundary Information --------------------
Euler wall boundary marker(s): airfoil.
Far-field boundary marker(s): farfield.

---------------------- Read Grid File Information -----------------------
Two dimensional problem.
5233 points before parallel partitioning.
Performing linear partitioning of the grid nodes.
10216 interior elements before parallel partitioning.
Calling the partitioning functions.
Building the graph adjacency structure.
Distributing elements across all ranks.
2 surface markers.
200 boundary elements in index 0 (Marker = airfoil).
50 boundary elements in index 1 (Marker = farfield).
Calling ParMETIS...
Finished partitioning using ParMETIS (547 edge cuts).
Communicating partition data and creating halo layers.
10763 interior elements including halo cells. 
10763 triangles.
5796 vertices including ghost points. 
Establishing MPI communication patterns.
Identify vertices.

------------------------- Solution Postprocessing -----------------------
Reading and storing the solution from restart_flow.dat.
Merging connectivities in the Master node.
Merging solution in the Master node.
Writing Tecplot ASCII file (volume grid).
Writing Tecplot ASCII file (surface grid).

Completed in 0.119308 seconds on 8 cores.

------------------------- Exit Success (SU2_SOL) ------------------------

